*************************************************
   ChampSim Multicore Out-of-Order Simulator
   Last compiled: Dec 21 2023 20:11:44
*************************************************

trace_0 ./test_trace/462.libquantum-714B.champsimtrace.xz
CPU 0 L2C next line prefetcher
Initialize SHIP state
warmup_instructions 100000000
simulation_instructions 100000000
champsim_seed 222

num_cpus 1
cpu_freq 4000
dram_io_freq 2400
page_size 4096
block_size 64
max_read_per_cycle 8
max_fill_per_cycle 1
dram_channels 1
dram_ranks 1
dram_banks 8
dram_rows 65536
dram_columns 128
dram_row_size 8
dram_size 4096
dram_pages 1048576

fetch_width 6
decode_width 6
exec_width 4
lq_width 2
sq_width 2
retire_width 4
scheduler_size 128
branch_mispredict_penalty 20
rob_size 256
lq_size 72
sq_size 56
num_instr_destinations_sparc 4
num_instr_destinations 2
num_instr_sources 4

itlb_set 16
itlb_way 8
itlb_rq_size 16
itlb_wq_size 16
itlb_pq_size 0
itlb_mshr_size 8
itlb_latency 1

dtlb_set 16
dtlb_way 4
dtlb_rq_size 16
dtlb_wq_size 16
dtlb_pq_size 0
dtlb_mshr_size 8
dtlb_latency 1

stlb_set 128
stlb_way 12
stlb_rq_size 32
stlb_wq_size 32
stlb_pq_size 0
stlb_mshr_size 16
stlb_latency 8

l1i_size 32
l1i_set 64
l1i_way 8
l1i_rq_size 64
l1i_wq_size 64
l1i_pq_size 8
l1i_mshr_size 8
l1i_latency 1

l1d_size 32
l1d_set 64
l1d_way 8
l1d_rq_size 64
l1d_wq_size 64
l1d_pq_size 8
l1d_mshr_size 16
l1d_latency 4

l2c_size 512
l2c_set 1024
l2c_way 8
l2c_rq_size 32
l2c_wq_size 32
l2c_pq_size 16
l2c_mshr_size 32
l2c_latency 10

llc_size 2048
llc_set 2048
llc_way 16
llc_rq_size 32
llc_wq_size 32
llc_pq_size 32
llc_mshr_size 64
llc_latency 20

dram_channel_width 8
dram_wq_size 64
dram_rq_size 64
tRP 15
tRCD 15
tCAS 12.5
dram_dbus_turn_around_time 30
dram_write_high_wm 56
dram_write_low_wm 48
min_dram_writes_per_switch 16
dram_mtps 2400
dram_dbus_return_time 13


Heartbeat CPU  0 instructions:    1000000 cycles:     548321 heartbeat IPC: 1.82375 cumulative IPC: 1.82375 (Simulation time: 0 hr 0 min 1 sec) 
Heartbeat CPU  0 instructions:    2000003 cycles:    1096974 heartbeat IPC: 1.82265 cumulative IPC: 1.82320 (Simulation time: 0 hr 0 min 1 sec) 
Heartbeat CPU  0 instructions:    3000002 cycles:    1645623 heartbeat IPC: 1.82266 cumulative IPC: 1.82302 (Simulation time: 0 hr 0 min 2 sec) 
Heartbeat CPU  0 instructions:    4000000 cycles:    2194272 heartbeat IPC: 1.82266 cumulative IPC: 1.82293 (Simulation time: 0 hr 0 min 3 sec) 
Heartbeat CPU  0 instructions:    5000000 cycles:    2742923 heartbeat IPC: 1.82265 cumulative IPC: 1.82287 (Simulation time: 0 hr 0 min 4 sec) 
Heartbeat CPU  0 instructions:    6000000 cycles:    3291575 heartbeat IPC: 1.82265 cumulative IPC: 1.82284 (Simulation time: 0 hr 0 min 4 sec) 
Heartbeat CPU  0 instructions:    7000000 cycles:    3840226 heartbeat IPC: 1.82265 cumulative IPC: 1.82281 (Simulation time: 0 hr 0 min 5 sec) 
Heartbeat CPU  0 instructions:    8000000 cycles:    4388878 heartbeat IPC: 1.82265 cumulative IPC: 1.82279 (Simulation time: 0 hr 0 min 6 sec) 
Heartbeat CPU  0 instructions:    9000002 cycles:    4916002 heartbeat IPC: 1.89709 cumulative IPC: 1.83076 (Simulation time: 0 hr 0 min 7 sec) 
Heartbeat CPU  0 instructions:   10000002 cycles:    5436074 heartbeat IPC: 1.92281 cumulative IPC: 1.83956 (Simulation time: 0 hr 0 min 9 sec) 
Heartbeat CPU  0 instructions:   11000001 cycles:    5956169 heartbeat IPC: 1.92272 cumulative IPC: 1.84682 (Simulation time: 0 hr 0 min 10 sec) 
Heartbeat CPU  0 instructions:   12000000 cycles:    6476241 heartbeat IPC: 1.92281 cumulative IPC: 1.85293 (Simulation time: 0 hr 0 min 11 sec) 
Heartbeat CPU  0 instructions:   13000000 cycles:    6996360 heartbeat IPC: 1.92264 cumulative IPC: 1.85811 (Simulation time: 0 hr 0 min 13 sec) 
Heartbeat CPU  0 instructions:   14000000 cycles:    7516432 heartbeat IPC: 1.92281 cumulative IPC: 1.86259 (Simulation time: 0 hr 0 min 14 sec) 
Heartbeat CPU  0 instructions:   15000003 cycles:    8036527 heartbeat IPC: 1.92273 cumulative IPC: 1.86648 (Simulation time: 0 hr 0 min 16 sec) 
Heartbeat CPU  0 instructions:   16000000 cycles:    8556599 heartbeat IPC: 1.92280 cumulative IPC: 1.86990 (Simulation time: 0 hr 0 min 17 sec) 
Heartbeat CPU  0 instructions:   17000000 cycles:    9076718 heartbeat IPC: 1.92264 cumulative IPC: 1.87292 (Simulation time: 0 hr 0 min 18 sec) 
Heartbeat CPU  0 instructions:   18000000 cycles:    9596790 heartbeat IPC: 1.92281 cumulative IPC: 1.87563 (Simulation time: 0 hr 0 min 20 sec) 
Heartbeat CPU  0 instructions:   19000003 cycles:   10116885 heartbeat IPC: 1.92273 cumulative IPC: 1.87805 (Simulation time: 0 hr 0 min 21 sec) 
Heartbeat CPU  0 instructions:   20000000 cycles:   10636957 heartbeat IPC: 1.92280 cumulative IPC: 1.88024 (Simulation time: 0 hr 0 min 22 sec) 
Heartbeat CPU  0 instructions:   21000000 cycles:   11157076 heartbeat IPC: 1.92264 cumulative IPC: 1.88221 (Simulation time: 0 hr 0 min 24 sec) 
Heartbeat CPU  0 instructions:   22000000 cycles:   11677148 heartbeat IPC: 1.92281 cumulative IPC: 1.88402 (Simulation time: 0 hr 0 min 25 sec) 
Heartbeat CPU  0 instructions:   23000000 cycles:   12189042 heartbeat IPC: 1.95353 cumulative IPC: 1.88694 (Simulation time: 0 hr 0 min 26 sec) 
Heartbeat CPU  0 instructions:   24000000 cycles:   12608453 heartbeat IPC: 2.38430 cumulative IPC: 1.90348 (Simulation time: 0 hr 0 min 27 sec) 
Heartbeat CPU  0 instructions:   25000000 cycles:   13027857 heartbeat IPC: 2.38434 cumulative IPC: 1.91896 (Simulation time: 0 hr 0 min 28 sec) 
Heartbeat CPU  0 instructions:   26000000 cycles:   13447278 heartbeat IPC: 2.38424 cumulative IPC: 1.93348 (Simulation time: 0 hr 0 min 29 sec) 
Heartbeat CPU  0 instructions:   27000000 cycles:   13866712 heartbeat IPC: 2.38417 cumulative IPC: 1.94711 (Simulation time: 0 hr 0 min 29 sec) 
Heartbeat CPU  0 instructions:   28000000 cycles:   14286147 heartbeat IPC: 2.38416 cumulative IPC: 1.95994 (Simulation time: 0 hr 0 min 30 sec) 
Heartbeat CPU  0 instructions:   29000001 cycles:   14705554 heartbeat IPC: 2.38432 cumulative IPC: 1.97204 (Simulation time: 0 hr 0 min 31 sec) 
Heartbeat CPU  0 instructions:   30000003 cycles:   15124957 heartbeat IPC: 2.38435 cumulative IPC: 1.98348 (Simulation time: 0 hr 0 min 31 sec) 
Heartbeat CPU  0 instructions:   31000001 cycles:   15544382 heartbeat IPC: 2.38421 cumulative IPC: 1.99429 (Simulation time: 0 hr 0 min 32 sec) 
Heartbeat CPU  0 instructions:   32000000 cycles:   15963839 heartbeat IPC: 2.38403 cumulative IPC: 2.00453 (Simulation time: 0 hr 0 min 33 sec) 
Heartbeat CPU  0 instructions:   33000003 cycles:   16383239 heartbeat IPC: 2.38437 cumulative IPC: 2.01425 (Simulation time: 0 hr 0 min 34 sec) 
Heartbeat CPU  0 instructions:   34000000 cycles:   16802633 heartbeat IPC: 2.38439 cumulative IPC: 2.02349 (Simulation time: 0 hr 0 min 34 sec) 
Heartbeat CPU  0 instructions:   35000002 cycles:   17222049 heartbeat IPC: 2.38427 cumulative IPC: 2.03228 (Simulation time: 0 hr 0 min 35 sec) 
Heartbeat CPU  0 instructions:   36000000 cycles:   17641490 heartbeat IPC: 2.38412 cumulative IPC: 2.04064 (Simulation time: 0 hr 0 min 36 sec) 
Heartbeat CPU  0 instructions:   37000000 cycles:   18060935 heartbeat IPC: 2.38410 cumulative IPC: 2.04862 (Simulation time: 0 hr 0 min 37 sec) 
Heartbeat CPU  0 instructions:   38000002 cycles:   18480335 heartbeat IPC: 2.38436 cumulative IPC: 2.05624 (Simulation time: 0 hr 0 min 37 sec) 
Heartbeat CPU  0 instructions:   39000000 cycles:   18899746 heartbeat IPC: 2.38429 cumulative IPC: 2.06352 (Simulation time: 0 hr 0 min 38 sec) 
Heartbeat CPU  0 instructions:   40000000 cycles:   19319163 heartbeat IPC: 2.38426 cumulative IPC: 2.07048 (Simulation time: 0 hr 0 min 39 sec) 
Heartbeat CPU  0 instructions:   41000001 cycles:   19738628 heartbeat IPC: 2.38399 cumulative IPC: 2.07715 (Simulation time: 0 hr 0 min 40 sec) 
Heartbeat CPU  0 instructions:   42000003 cycles:   20158035 heartbeat IPC: 2.38432 cumulative IPC: 2.08354 (Simulation time: 0 hr 0 min 40 sec) 
Heartbeat CPU  0 instructions:   43000001 cycles:   20577437 heartbeat IPC: 2.38434 cumulative IPC: 2.08967 (Simulation time: 0 hr 0 min 41 sec) 
Heartbeat CPU  0 instructions:   44000000 cycles:   20996837 heartbeat IPC: 2.38436 cumulative IPC: 2.09555 (Simulation time: 0 hr 0 min 42 sec) 
Heartbeat CPU  0 instructions:   45000001 cycles:   21416271 heartbeat IPC: 2.38417 cumulative IPC: 2.10121 (Simulation time: 0 hr 0 min 43 sec) 
Heartbeat CPU  0 instructions:   46000001 cycles:   21835715 heartbeat IPC: 2.38411 cumulative IPC: 2.10664 (Simulation time: 0 hr 0 min 43 sec) 
Heartbeat CPU  0 instructions:   47000000 cycles:   22375651 heartbeat IPC: 1.85207 cumulative IPC: 2.10050 (Simulation time: 0 hr 0 min 44 sec) 
Heartbeat CPU  0 instructions:   48000000 cycles:   22917910 heartbeat IPC: 1.84414 cumulative IPC: 2.09443 (Simulation time: 0 hr 0 min 45 sec) 
Heartbeat CPU  0 instructions:   49000000 cycles:   23460171 heartbeat IPC: 1.84413 cumulative IPC: 2.08865 (Simulation time: 0 hr 0 min 46 sec) 
Heartbeat CPU  0 instructions:   50000003 cycles:   24002431 heartbeat IPC: 1.84414 cumulative IPC: 2.08312 (Simulation time: 0 hr 0 min 47 sec) 
Heartbeat CPU  0 instructions:   51000002 cycles:   24544689 heartbeat IPC: 1.84414 cumulative IPC: 2.07784 (Simulation time: 0 hr 0 min 47 sec) 
Heartbeat CPU  0 instructions:   52000000 cycles:   25086945 heartbeat IPC: 1.84414 cumulative IPC: 2.07279 (Simulation time: 0 hr 0 min 48 sec) 
Heartbeat CPU  0 instructions:   53000000 cycles:   25629201 heartbeat IPC: 1.84415 cumulative IPC: 2.06795 (Simulation time: 0 hr 0 min 49 sec) 
Heartbeat CPU  0 instructions:   54000003 cycles:   26171460 heartbeat IPC: 1.84414 cumulative IPC: 2.06332 (Simulation time: 0 hr 0 min 50 sec) 
Heartbeat CPU  0 instructions:   55000002 cycles:   26713718 heartbeat IPC: 1.84414 cumulative IPC: 2.05887 (Simulation time: 0 hr 0 min 51 sec) 
Heartbeat CPU  0 instructions:   56000000 cycles:   27255977 heartbeat IPC: 1.84413 cumulative IPC: 2.05460 (Simulation time: 0 hr 0 min 51 sec) 
Heartbeat CPU  0 instructions:   57000000 cycles:   27798236 heartbeat IPC: 1.84414 cumulative IPC: 2.05049 (Simulation time: 0 hr 0 min 52 sec) 
Heartbeat CPU  0 instructions:   58000000 cycles:   28340497 heartbeat IPC: 1.84413 cumulative IPC: 2.04654 (Simulation time: 0 hr 0 min 53 sec) 
Heartbeat CPU  0 instructions:   59000000 cycles:   28882758 heartbeat IPC: 1.84413 cumulative IPC: 2.04274 (Simulation time: 0 hr 0 min 54 sec) 
Heartbeat CPU  0 instructions:   60000000 cycles:   29425015 heartbeat IPC: 1.84414 cumulative IPC: 2.03908 (Simulation time: 0 hr 0 min 54 sec) 
Heartbeat CPU  0 instructions:   61000003 cycles:   29967272 heartbeat IPC: 1.84415 cumulative IPC: 2.03555 (Simulation time: 0 hr 0 min 55 sec) 
Heartbeat CPU  0 instructions:   62000002 cycles:   30509529 heartbeat IPC: 1.84414 cumulative IPC: 2.03215 (Simulation time: 0 hr 0 min 56 sec) 
Heartbeat CPU  0 instructions:   63000001 cycles:   31051788 heartbeat IPC: 1.84414 cumulative IPC: 2.02887 (Simulation time: 0 hr 0 min 57 sec) 
Heartbeat CPU  0 instructions:   64000000 cycles:   31594043 heartbeat IPC: 1.84415 cumulative IPC: 2.02570 (Simulation time: 0 hr 0 min 58 sec) 
Heartbeat CPU  0 instructions:   65000003 cycles:   32136305 heartbeat IPC: 1.84413 cumulative IPC: 2.02263 (Simulation time: 0 hr 0 min 58 sec) 
Heartbeat CPU  0 instructions:   66000002 cycles:   32678564 heartbeat IPC: 1.84414 cumulative IPC: 2.01967 (Simulation time: 0 hr 0 min 59 sec) 
Heartbeat CPU  0 instructions:   67000001 cycles:   33220823 heartbeat IPC: 1.84414 cumulative IPC: 2.01681 (Simulation time: 0 hr 1 min 0 sec) 
Heartbeat CPU  0 instructions:   68000000 cycles:   33763267 heartbeat IPC: 1.84351 cumulative IPC: 2.01402 (Simulation time: 0 hr 1 min 1 sec) 
Heartbeat CPU  0 instructions:   69000000 cycles:   34306238 heartbeat IPC: 1.84172 cumulative IPC: 2.01130 (Simulation time: 0 hr 1 min 2 sec) 
Heartbeat CPU  0 instructions:   70000000 cycles:   34826864 heartbeat IPC: 1.92076 cumulative IPC: 2.00994 (Simulation time: 0 hr 1 min 3 sec) 
Heartbeat CPU  0 instructions:   71000003 cycles:   35345281 heartbeat IPC: 1.92895 cumulative IPC: 2.00875 (Simulation time: 0 hr 1 min 4 sec) 
Heartbeat CPU  0 instructions:   72000000 cycles:   35863679 heartbeat IPC: 1.92901 cumulative IPC: 2.00760 (Simulation time: 0 hr 1 min 6 sec) 
Heartbeat CPU  0 instructions:   73000002 cycles:   36382124 heartbeat IPC: 1.92885 cumulative IPC: 2.00648 (Simulation time: 0 hr 1 min 7 sec) 
Heartbeat CPU  0 instructions:   74000002 cycles:   36900522 heartbeat IPC: 1.92902 cumulative IPC: 2.00539 (Simulation time: 0 hr 1 min 8 sec) 
Heartbeat CPU  0 instructions:   75000001 cycles:   37418944 heartbeat IPC: 1.92893 cumulative IPC: 2.00433 (Simulation time: 0 hr 1 min 10 sec) 
Heartbeat CPU  0 instructions:   76000000 cycles:   37937342 heartbeat IPC: 1.92902 cumulative IPC: 2.00330 (Simulation time: 0 hr 1 min 11 sec) 
Heartbeat CPU  0 instructions:   77000001 cycles:   38455787 heartbeat IPC: 1.92885 cumulative IPC: 2.00230 (Simulation time: 0 hr 1 min 12 sec) 
Heartbeat CPU  0 instructions:   78000001 cycles:   38974185 heartbeat IPC: 1.92902 cumulative IPC: 2.00132 (Simulation time: 0 hr 1 min 14 sec) 
Heartbeat CPU  0 instructions:   79000000 cycles:   39492607 heartbeat IPC: 1.92893 cumulative IPC: 2.00037 (Simulation time: 0 hr 1 min 15 sec) 
Heartbeat CPU  0 instructions:   80000000 cycles:   40011005 heartbeat IPC: 1.92902 cumulative IPC: 1.99945 (Simulation time: 0 hr 1 min 16 sec) 
Heartbeat CPU  0 instructions:   81000000 cycles:   40529450 heartbeat IPC: 1.92884 cumulative IPC: 1.99855 (Simulation time: 0 hr 1 min 18 sec) 
Heartbeat CPU  0 instructions:   82000000 cycles:   41047848 heartbeat IPC: 1.92902 cumulative IPC: 1.99767 (Simulation time: 0 hr 1 min 19 sec) 
Heartbeat CPU  0 instructions:   83000003 cycles:   41566268 heartbeat IPC: 1.92894 cumulative IPC: 1.99681 (Simulation time: 0 hr 1 min 20 sec) 
Heartbeat CPU  0 instructions:   84000000 cycles:   42061603 heartbeat IPC: 2.01883 cumulative IPC: 1.99707 (Simulation time: 0 hr 1 min 22 sec) 
Heartbeat CPU  0 instructions:   85000000 cycles:   42481007 heartbeat IPC: 2.38434 cumulative IPC: 2.00089 (Simulation time: 0 hr 1 min 22 sec) 
Heartbeat CPU  0 instructions:   86000001 cycles:   42900413 heartbeat IPC: 2.38433 cumulative IPC: 2.00464 (Simulation time: 0 hr 1 min 23 sec) 
Heartbeat CPU  0 instructions:   87000003 cycles:   43319827 heartbeat IPC: 2.38428 cumulative IPC: 2.00832 (Simulation time: 0 hr 1 min 24 sec) 
Heartbeat CPU  0 instructions:   88000000 cycles:   43739299 heartbeat IPC: 2.38394 cumulative IPC: 2.01192 (Simulation time: 0 hr 1 min 24 sec) 
Heartbeat CPU  0 instructions:   89000001 cycles:   44158707 heartbeat IPC: 2.38432 cumulative IPC: 2.01546 (Simulation time: 0 hr 1 min 25 sec) 
Heartbeat CPU  0 instructions:   90000001 cycles:   44578108 heartbeat IPC: 2.38435 cumulative IPC: 2.01893 (Simulation time: 0 hr 1 min 26 sec) 
Heartbeat CPU  0 instructions:   91000000 cycles:   44997504 heartbeat IPC: 2.38438 cumulative IPC: 2.02233 (Simulation time: 0 hr 1 min 27 sec) 
Heartbeat CPU  0 instructions:   92000000 cycles:   45416939 heartbeat IPC: 2.38416 cumulative IPC: 2.02568 (Simulation time: 0 hr 1 min 27 sec) 
Heartbeat CPU  0 instructions:   93000003 cycles:   45836391 heartbeat IPC: 2.38407 cumulative IPC: 2.02896 (Simulation time: 0 hr 1 min 28 sec) 
Heartbeat CPU  0 instructions:   94000000 cycles:   46255792 heartbeat IPC: 2.38435 cumulative IPC: 2.03218 (Simulation time: 0 hr 1 min 29 sec) 
Heartbeat CPU  0 instructions:   95000002 cycles:   46675190 heartbeat IPC: 2.38437 cumulative IPC: 2.03534 (Simulation time: 0 hr 1 min 30 sec) 
Heartbeat CPU  0 instructions:   96000000 cycles:   47094609 heartbeat IPC: 2.38425 cumulative IPC: 2.03845 (Simulation time: 0 hr 1 min 30 sec) 
Heartbeat CPU  0 instructions:   97000000 cycles:   47514077 heartbeat IPC: 2.38397 cumulative IPC: 2.04150 (Simulation time: 0 hr 1 min 31 sec) 
Heartbeat CPU  0 instructions:   98000000 cycles:   47933489 heartbeat IPC: 2.38429 cumulative IPC: 2.04450 (Simulation time: 0 hr 1 min 32 sec) 
Heartbeat CPU  0 instructions:   99000003 cycles:   48352895 heartbeat IPC: 2.38433 cumulative IPC: 2.04745 (Simulation time: 0 hr 1 min 32 sec) 
Heartbeat CPU  0 instructions:  100000000 cycles:   48772299 heartbeat IPC: 2.38433 cumulative IPC: 2.05034 (Simulation time: 0 hr 1 min 33 sec) 

Warmup complete CPU  0 instructions:  100000001 cycles:   48772301 (Simulation time: 0 hr 1 min 33 sec) 

Heartbeat CPU  0 instructions:  101000003 cycles:   50207673 heartbeat IPC: 0.69668 cumulative IPC: 0.69668 (Simulation time: 0 hr 1 min 35 sec) 
Heartbeat CPU  0 instructions:  102000003 cycles:   51639349 heartbeat IPC: 0.69848 cumulative IPC: 0.69758 (Simulation time: 0 hr 1 min 36 sec) 
Heartbeat CPU  0 instructions:  103000001 cycles:   53072059 heartbeat IPC: 0.69798 cumulative IPC: 0.69771 (Simulation time: 0 hr 1 min 38 sec) 
Heartbeat CPU  0 instructions:  104000000 cycles:   54503605 heartbeat IPC: 0.69854 cumulative IPC: 0.69792 (Simulation time: 0 hr 1 min 39 sec) 
Heartbeat CPU  0 instructions:  105000000 cycles:   55933931 heartbeat IPC: 0.69914 cumulative IPC: 0.69816 (Simulation time: 0 hr 1 min 41 sec) 
Heartbeat CPU  0 instructions:  106000002 cycles:   57138668 heartbeat IPC: 0.83006 cumulative IPC: 0.71716 (Simulation time: 0 hr 1 min 42 sec) 
Heartbeat CPU  0 instructions:  107000000 cycles:   58164931 heartbeat IPC: 0.97441 cumulative IPC: 0.74527 (Simulation time: 0 hr 1 min 43 sec) 
Heartbeat CPU  0 instructions:  108000000 cycles:   59677002 heartbeat IPC: 0.66134 cumulative IPC: 0.73363 (Simulation time: 0 hr 1 min 45 sec) 
Heartbeat CPU  0 instructions:  109000000 cycles:   61217040 heartbeat IPC: 0.64933 cumulative IPC: 0.72320 (Simulation time: 0 hr 1 min 46 sec) 
Heartbeat CPU  0 instructions:  110000001 cycles:   62743085 heartbeat IPC: 0.65529 cumulative IPC: 0.71578 (Simulation time: 0 hr 1 min 48 sec) 
Heartbeat CPU  0 instructions:  111000001 cycles:   64267490 heartbeat IPC: 0.65599 cumulative IPC: 0.70990 (Simulation time: 0 hr 1 min 49 sec) 
Heartbeat CPU  0 instructions:  112000000 cycles:   65799013 heartbeat IPC: 0.65294 cumulative IPC: 0.70477 (Simulation time: 0 hr 1 min 51 sec) 
Heartbeat CPU  0 instructions:  113000002 cycles:   67333383 heartbeat IPC: 0.65173 cumulative IPC: 0.70039 (Simulation time: 0 hr 1 min 52 sec) 
Heartbeat CPU  0 instructions:  114000002 cycles:   68862434 heartbeat IPC: 0.65400 cumulative IPC: 0.69686 (Simulation time: 0 hr 1 min 54 sec) 
Heartbeat CPU  0 instructions:  115000003 cycles:   70391754 heartbeat IPC: 0.65389 cumulative IPC: 0.69382 (Simulation time: 0 hr 1 min 55 sec) 
Heartbeat CPU  0 instructions:  116000000 cycles:   71915537 heartbeat IPC: 0.65626 cumulative IPC: 0.69135 (Simulation time: 0 hr 1 min 56 sec) 
Heartbeat CPU  0 instructions:  117000000 cycles:   73450515 heartbeat IPC: 0.65148 cumulative IPC: 0.68887 (Simulation time: 0 hr 1 min 58 sec) 
Heartbeat CPU  0 instructions:  118000000 cycles:   74989147 heartbeat IPC: 0.64993 cumulative IPC: 0.68658 (Simulation time: 0 hr 1 min 59 sec) 
Heartbeat CPU  0 instructions:  119000001 cycles:   76511790 heartbeat IPC: 0.65675 cumulative IPC: 0.68494 (Simulation time: 0 hr 2 min 1 sec) 
Heartbeat CPU  0 instructions:  120000000 cycles:   78041753 heartbeat IPC: 0.65361 cumulative IPC: 0.68331 (Simulation time: 0 hr 2 min 2 sec) 
Heartbeat CPU  0 instructions:  121000000 cycles:   79569481 heartbeat IPC: 0.65457 cumulative IPC: 0.68188 (Simulation time: 0 hr 2 min 4 sec) 
Heartbeat CPU  0 instructions:  122000002 cycles:   81106736 heartbeat IPC: 0.65051 cumulative IPC: 0.68039 (Simulation time: 0 hr 2 min 5 sec) 
Heartbeat CPU  0 instructions:  123000002 cycles:   82628546 heartbeat IPC: 0.65711 cumulative IPC: 0.67934 (Simulation time: 0 hr 2 min 7 sec) 
Heartbeat CPU  0 instructions:  124000000 cycles:   84157490 heartbeat IPC: 0.65404 cumulative IPC: 0.67825 (Simulation time: 0 hr 2 min 8 sec) 
Heartbeat CPU  0 instructions:  125000003 cycles:   85692604 heartbeat IPC: 0.65142 cumulative IPC: 0.67713 (Simulation time: 0 hr 2 min 10 sec) 
Heartbeat CPU  0 instructions:  126000000 cycles:   87229795 heartbeat IPC: 0.65054 cumulative IPC: 0.67607 (Simulation time: 0 hr 2 min 11 sec) 
Heartbeat CPU  0 instructions:  127000000 cycles:   88749434 heartbeat IPC: 0.65805 cumulative IPC: 0.67539 (Simulation time: 0 hr 2 min 13 sec) 
Heartbeat CPU  0 instructions:  128000000 cycles:   90273815 heartbeat IPC: 0.65600 cumulative IPC: 0.67467 (Simulation time: 0 hr 2 min 14 sec) 
Heartbeat CPU  0 instructions:  129000001 cycles:   91664192 heartbeat IPC: 0.71923 cumulative IPC: 0.67612 (Simulation time: 0 hr 2 min 15 sec) 
Heartbeat CPU  0 instructions:  130000001 cycles:   92803119 heartbeat IPC: 0.87802 cumulative IPC: 0.68134 (Simulation time: 0 hr 2 min 17 sec) 
Heartbeat CPU  0 instructions:  131000000 cycles:   95458552 heartbeat IPC: 0.37659 cumulative IPC: 0.66401 (Simulation time: 0 hr 2 min 19 sec) 
Heartbeat CPU  0 instructions:  132000000 cycles:   98419141 heartbeat IPC: 0.33777 cumulative IPC: 0.64455 (Simulation time: 0 hr 2 min 21 sec) 
Heartbeat CPU  0 instructions:  133000000 cycles:  101389410 heartbeat IPC: 0.33667 cumulative IPC: 0.62717 (Simulation time: 0 hr 2 min 23 sec) 
Heartbeat CPU  0 instructions:  134000000 cycles:  104331317 heartbeat IPC: 0.33992 cumulative IPC: 0.61196 (Simulation time: 0 hr 2 min 26 sec) 
Heartbeat CPU  0 instructions:  135000000 cycles:  107294181 heartbeat IPC: 0.33751 cumulative IPC: 0.59807 (Simulation time: 0 hr 2 min 28 sec) 
Heartbeat CPU  0 instructions:  136000000 cycles:  110264022 heartbeat IPC: 0.33672 cumulative IPC: 0.58544 (Simulation time: 0 hr 2 min 30 sec) 
Heartbeat CPU  0 instructions:  137000000 cycles:  113200080 heartbeat IPC: 0.34059 cumulative IPC: 0.57429 (Simulation time: 0 hr 2 min 32 sec) 
Heartbeat CPU  0 instructions:  138000000 cycles:  116157367 heartbeat IPC: 0.33815 cumulative IPC: 0.56392 (Simulation time: 0 hr 2 min 35 sec) 
Heartbeat CPU  0 instructions:  139000000 cycles:  119114448 heartbeat IPC: 0.33817 cumulative IPC: 0.55443 (Simulation time: 0 hr 2 min 37 sec) 
Heartbeat CPU  0 instructions:  140000000 cycles:  122062667 heartbeat IPC: 0.33919 cumulative IPC: 0.54577 (Simulation time: 0 hr 2 min 39 sec) 
Heartbeat CPU  0 instructions:  141000000 cycles:  125036067 heartbeat IPC: 0.33632 cumulative IPC: 0.53761 (Simulation time: 0 hr 2 min 42 sec) 
Heartbeat CPU  0 instructions:  142000000 cycles:  128001348 heartbeat IPC: 0.33724 cumulative IPC: 0.53011 (Simulation time: 0 hr 2 min 44 sec) 
Heartbeat CPU  0 instructions:  143000000 cycles:  130942824 heartbeat IPC: 0.33997 cumulative IPC: 0.52330 (Simulation time: 0 hr 2 min 46 sec) 
Heartbeat CPU  0 instructions:  144000000 cycles:  133917702 heartbeat IPC: 0.33615 cumulative IPC: 0.51676 (Simulation time: 0 hr 2 min 48 sec) 
Heartbeat CPU  0 instructions:  145000002 cycles:  136708189 heartbeat IPC: 0.35836 cumulative IPC: 0.51174 (Simulation time: 0 hr 2 min 51 sec) 
Heartbeat CPU  0 instructions:  146000000 cycles:  138277887 heartbeat IPC: 0.63706 cumulative IPC: 0.51393 (Simulation time: 0 hr 2 min 52 sec) 
Heartbeat CPU  0 instructions:  147000000 cycles:  139710009 heartbeat IPC: 0.69826 cumulative IPC: 0.51684 (Simulation time: 0 hr 2 min 54 sec) 
Heartbeat CPU  0 instructions:  148000000 cycles:  141144228 heartbeat IPC: 0.69724 cumulative IPC: 0.51964 (Simulation time: 0 hr 2 min 55 sec) 
Heartbeat CPU  0 instructions:  149000000 cycles:  142574925 heartbeat IPC: 0.69896 cumulative IPC: 0.52237 (Simulation time: 0 hr 2 min 57 sec) 
Heartbeat CPU  0 instructions:  150000001 cycles:  144007405 heartbeat IPC: 0.69809 cumulative IPC: 0.52502 (Simulation time: 0 hr 2 min 58 sec) 
Heartbeat CPU  0 instructions:  151000000 cycles:  145440532 heartbeat IPC: 0.69777 cumulative IPC: 0.52758 (Simulation time: 0 hr 2 min 59 sec) 
Heartbeat CPU  0 instructions:  152000000 cycles:  146869671 heartbeat IPC: 0.69972 cumulative IPC: 0.53009 (Simulation time: 0 hr 3 min 1 sec) 
Heartbeat CPU  0 instructions:  153000001 cycles:  148303843 heartbeat IPC: 0.69727 cumulative IPC: 0.53249 (Simulation time: 0 hr 3 min 2 sec) 
Heartbeat CPU  0 instructions:  154000003 cycles:  149735309 heartbeat IPC: 0.69859 cumulative IPC: 0.53485 (Simulation time: 0 hr 3 min 4 sec) 
Heartbeat CPU  0 instructions:  155000001 cycles:  151167935 heartbeat IPC: 0.69802 cumulative IPC: 0.53713 (Simulation time: 0 hr 3 min 5 sec) 
Heartbeat CPU  0 instructions:  156000000 cycles:  152600352 heartbeat IPC: 0.69812 cumulative IPC: 0.53935 (Simulation time: 0 hr 3 min 7 sec) 
Heartbeat CPU  0 instructions:  157000002 cycles:  154030332 heartbeat IPC: 0.69931 cumulative IPC: 0.54153 (Simulation time: 0 hr 3 min 8 sec) 
Heartbeat CPU  0 instructions:  158000000 cycles:  155462573 heartbeat IPC: 0.69821 cumulative IPC: 0.54363 (Simulation time: 0 hr 3 min 10 sec) 
Heartbeat CPU  0 instructions:  159000002 cycles:  156895805 heartbeat IPC: 0.69773 cumulative IPC: 0.54567 (Simulation time: 0 hr 3 min 11 sec) 
Heartbeat CPU  0 instructions:  160000000 cycles:  158326291 heartbeat IPC: 0.69906 cumulative IPC: 0.54768 (Simulation time: 0 hr 3 min 13 sec) 
Heartbeat CPU  0 instructions:  161000000 cycles:  159758424 heartbeat IPC: 0.69826 cumulative IPC: 0.54962 (Simulation time: 0 hr 3 min 14 sec) 
Heartbeat CPU  0 instructions:  162000002 cycles:  161194635 heartbeat IPC: 0.69628 cumulative IPC: 0.55149 (Simulation time: 0 hr 3 min 16 sec) 
Heartbeat CPU  0 instructions:  163000000 cycles:  162622276 heartbeat IPC: 0.70045 cumulative IPC: 0.55336 (Simulation time: 0 hr 3 min 17 sec) 
Heartbeat CPU  0 instructions:  164000000 cycles:  164055655 heartbeat IPC: 0.69765 cumulative IPC: 0.55515 (Simulation time: 0 hr 3 min 19 sec) 
Heartbeat CPU  0 instructions:  165000001 cycles:  165485141 heartbeat IPC: 0.69955 cumulative IPC: 0.55692 (Simulation time: 0 hr 3 min 20 sec) 
Heartbeat CPU  0 instructions:  166000003 cycles:  166918974 heartbeat IPC: 0.69743 cumulative IPC: 0.55863 (Simulation time: 0 hr 3 min 22 sec) 
Heartbeat CPU  0 instructions:  167000001 cycles:  168082407 heartbeat IPC: 0.85952 cumulative IPC: 0.56156 (Simulation time: 0 hr 3 min 23 sec) 
Heartbeat CPU  0 instructions:  168000000 cycles:  169156190 heartbeat IPC: 0.93129 cumulative IPC: 0.56486 (Simulation time: 0 hr 3 min 24 sec) 
Heartbeat CPU  0 instructions:  169000000 cycles:  170718055 heartbeat IPC: 0.64026 cumulative IPC: 0.56583 (Simulation time: 0 hr 3 min 26 sec) 
Heartbeat CPU  0 instructions:  170000003 cycles:  172323789 heartbeat IPC: 0.62277 cumulative IPC: 0.56657 (Simulation time: 0 hr 3 min 27 sec) 
Heartbeat CPU  0 instructions:  171000001 cycles:  173924781 heartbeat IPC: 0.62461 cumulative IPC: 0.56731 (Simulation time: 0 hr 3 min 29 sec) 
Heartbeat CPU  0 instructions:  172000000 cycles:  175511025 heartbeat IPC: 0.63042 cumulative IPC: 0.56810 (Simulation time: 0 hr 3 min 31 sec) 
Heartbeat CPU  0 instructions:  173000001 cycles:  177102287 heartbeat IPC: 0.62843 cumulative IPC: 0.56885 (Simulation time: 0 hr 3 min 32 sec) 
Heartbeat CPU  0 instructions:  174000000 cycles:  178698206 heartbeat IPC: 0.62660 cumulative IPC: 0.56956 (Simulation time: 0 hr 3 min 34 sec) 
Heartbeat CPU  0 instructions:  175000002 cycles:  180302857 heartbeat IPC: 0.62319 cumulative IPC: 0.57021 (Simulation time: 0 hr 3 min 35 sec) 
Heartbeat CPU  0 instructions:  176000000 cycles:  181912209 heartbeat IPC: 0.62137 cumulative IPC: 0.57083 (Simulation time: 0 hr 3 min 37 sec) 
Heartbeat CPU  0 instructions:  177000002 cycles:  183495858 heartbeat IPC: 0.63145 cumulative IPC: 0.57154 (Simulation time: 0 hr 3 min 38 sec) 
Heartbeat CPU  0 instructions:  178000000 cycles:  185098835 heartbeat IPC: 0.62384 cumulative IPC: 0.57216 (Simulation time: 0 hr 3 min 40 sec) 
Heartbeat CPU  0 instructions:  179000003 cycles:  186696893 heartbeat IPC: 0.62576 cumulative IPC: 0.57278 (Simulation time: 0 hr 3 min 42 sec) 
Heartbeat CPU  0 instructions:  180000000 cycles:  188280426 heartbeat IPC: 0.63150 cumulative IPC: 0.57344 (Simulation time: 0 hr 3 min 43 sec) 
Heartbeat CPU  0 instructions:  181000000 cycles:  189882036 heartbeat IPC: 0.62437 cumulative IPC: 0.57402 (Simulation time: 0 hr 3 min 45 sec) 
Heartbeat CPU  0 instructions:  182000001 cycles:  191475322 heartbeat IPC: 0.62763 cumulative IPC: 0.57462 (Simulation time: 0 hr 3 min 46 sec) 
Heartbeat CPU  0 instructions:  183000000 cycles:  193082887 heartbeat IPC: 0.62206 cumulative IPC: 0.57515 (Simulation time: 0 hr 3 min 48 sec) 
Heartbeat CPU  0 instructions:  184000000 cycles:  194687689 heartbeat IPC: 0.62313 cumulative IPC: 0.57568 (Simulation time: 0 hr 3 min 49 sec) 
Heartbeat CPU  0 instructions:  185000001 cycles:  196287640 heartbeat IPC: 0.62502 cumulative IPC: 0.57621 (Simulation time: 0 hr 3 min 51 sec) 
Heartbeat CPU  0 instructions:  186000002 cycles:  197885800 heartbeat IPC: 0.62572 cumulative IPC: 0.57674 (Simulation time: 0 hr 3 min 53 sec) 
Heartbeat CPU  0 instructions:  187000000 cycles:  199492956 heartbeat IPC: 0.62222 cumulative IPC: 0.57723 (Simulation time: 0 hr 3 min 54 sec) 
Heartbeat CPU  0 instructions:  188000000 cycles:  201080891 heartbeat IPC: 0.62975 cumulative IPC: 0.57777 (Simulation time: 0 hr 3 min 56 sec) 
Heartbeat CPU  0 instructions:  189000001 cycles:  202675825 heartbeat IPC: 0.62699 cumulative IPC: 0.57828 (Simulation time: 0 hr 3 min 57 sec) 
Heartbeat CPU  0 instructions:  190000000 cycles:  204072693 heartbeat IPC: 0.71589 cumulative IPC: 0.57952 (Simulation time: 0 hr 3 min 59 sec) 
Heartbeat CPU  0 instructions:  191000000 cycles:  205201841 heartbeat IPC: 0.88562 cumulative IPC: 0.58173 (Simulation time: 0 hr 4 min 0 sec) 
Heartbeat CPU  0 instructions:  192000000 cycles:  207927691 heartbeat IPC: 0.36686 cumulative IPC: 0.57805 (Simulation time: 0 hr 4 min 2 sec) 
Heartbeat CPU  0 instructions:  193000000 cycles:  210864499 heartbeat IPC: 0.34051 cumulative IPC: 0.57375 (Simulation time: 0 hr 4 min 5 sec) 
Heartbeat CPU  0 instructions:  194000000 cycles:  213805396 heartbeat IPC: 0.34003 cumulative IPC: 0.56958 (Simulation time: 0 hr 4 min 7 sec) 
Heartbeat CPU  0 instructions:  195000000 cycles:  216736786 heartbeat IPC: 0.34114 cumulative IPC: 0.56560 (Simulation time: 0 hr 4 min 9 sec) 
Heartbeat CPU  0 instructions:  196000000 cycles:  219676339 heartbeat IPC: 0.34019 cumulative IPC: 0.56172 (Simulation time: 0 hr 4 min 11 sec) 
Heartbeat CPU  0 instructions:  197000000 cycles:  222624987 heartbeat IPC: 0.33914 cumulative IPC: 0.55794 (Simulation time: 0 hr 4 min 14 sec) 
Heartbeat CPU  0 instructions:  198000000 cycles:  225541540 heartbeat IPC: 0.34287 cumulative IPC: 0.55440 (Simulation time: 0 hr 4 min 16 sec) 
Heartbeat CPU  0 instructions:  199000000 cycles:  228471522 heartbeat IPC: 0.34130 cumulative IPC: 0.55092 (Simulation time: 0 hr 4 min 18 sec) 
Heartbeat CPU  0 instructions:  200000000 cycles:  231405387 heartbeat IPC: 0.34085 cumulative IPC: 0.54755 (Simulation time: 0 hr 4 min 20 sec) 
Finished CPU 0 instructions: 100000000 cycles: 182633099 cumulative IPC: 0.54755 (Simulation time: 0 hr 4 min 20 sec) 

ChampSim completed all CPUs

[ROI Statistics]
Core_0_instructions 100000000
Core_0_cycles 182633099
Core_0_IPC 0.54755

Core_0_branch_prediction_accuracy 99.58952
Core_0_branch_MPKI 0.70683
Core_0_average_ROB_occupancy_at_mispredict 218.77054

Core_0_L1D_total_access 13307114
Core_0_L1D_total_hit 10730891
Core_0_L1D_total_miss 2576223
Core_0_L1D_loads 9814134
Core_0_L1D_load_hit 7237931
Core_0_L1D_load_miss 2576203
Core_0_L1D_RFOs 3492980
Core_0_L1D_RFO_hit 3492960
Core_0_L1D_RFO_miss 20
Core_0_L1D_prefetches 0
Core_0_L1D_prefetch_hit 0
Core_0_L1D_prefetch_miss 0
Core_0_L1D_writebacks 0
Core_0_L1D_writeback_hit 0
Core_0_L1D_writeback_miss 0
Core_0_L1D_prefetch_requested 0
Core_0_L1D_prefetch_issued 0
Core_0_L1D_prefetch_useful 0
Core_0_L1D_prefetch_useless 0
Core_0_L1D_prefetch_late 0
Core_0_L1D_average_miss_latency 131.83291

Core_0_L1I_total_access 33046422
Core_0_L1I_total_hit 33046421
Core_0_L1I_total_miss 1
Core_0_L1I_loads 33046422
Core_0_L1I_load_hit 33046421
Core_0_L1I_load_miss 1
Core_0_L1I_RFOs 0
Core_0_L1I_RFO_hit 0
Core_0_L1I_RFO_miss 0
Core_0_L1I_prefetches 0
Core_0_L1I_prefetch_hit 0
Core_0_L1I_prefetch_miss 0
Core_0_L1I_writebacks 0
Core_0_L1I_writeback_hit 0
Core_0_L1I_writeback_miss 0
Core_0_L1I_prefetch_requested 0
Core_0_L1I_prefetch_issued 0
Core_0_L1I_prefetch_useful 0
Core_0_L1I_prefetch_useless 0
Core_0_L1I_prefetch_late 0
Core_0_L1I_average_miss_latency 231.00000

Core_0_L2C_total_access 4025712
Core_0_L2C_total_hit 1449472
Core_0_L2C_total_miss 2576240
Core_0_L2C_loads 2576204
Core_0_L2C_load_hit 499298
Core_0_L2C_load_miss 2076906
Core_0_L2C_RFOs 20
Core_0_L2C_RFO_hit 0
Core_0_L2C_RFO_miss 20
Core_0_L2C_prefetches 499343
Core_0_L2C_prefetch_hit 29
Core_0_L2C_prefetch_miss 499314
Core_0_L2C_writebacks 950145
Core_0_L2C_writeback_hit 950145
Core_0_L2C_writeback_miss 0
Core_0_L2C_prefetch_requested 5228991
Core_0_L2C_prefetch_issued 5147289
Core_0_L2C_prefetch_useful 2995906
Core_0_L2C_prefetch_useless 43
Core_0_L2C_prefetch_late 1501038
Core_0_L2C_average_miss_latency 151.34433

Core_0_LLC_total_access 3518943
Core_0_LLC_total_hit 116190
Core_0_LLC_total_miss 3402753
Core_0_LLC_loads 690567
Core_0_LLC_load_hit 30788
Core_0_LLC_load_miss 659779
Core_0_LLC_RFOs 20
Core_0_LLC_RFO_hit 16
Core_0_LLC_RFO_miss 4
Core_0_LLC_prefetches 1885653
Core_0_LLC_prefetch_hit 85356
Core_0_LLC_prefetch_miss 1800297
Core_0_LLC_writebacks 942703
Core_0_LLC_writeback_hit 30
Core_0_LLC_writeback_miss 942673
Core_0_LLC_prefetch_requested 0
Core_0_LLC_prefetch_issued 0
Core_0_LLC_prefetch_useful 0
Core_0_LLC_prefetch_useless 4352136
Core_0_LLC_prefetch_late 0
Core_0_LLC_average_miss_latency 102.52224

Core_0_major_page_fault 0
Core_0_minor_page_fault 8199

CPU 0 L2C next line prefetcher final stats
Channel_0_RQ_row_buffer_hit 1410779
Channel_0_RQ_row_buffer_miss 1049301
Channel_0_WQ_row_buffer_hit 499794
Channel_0_WQ_row_buffer_miss 440854
Channel_0_WQ_full 0
Channel_0_dbus_congested 1812073

avg_congested_cycle 9
