*************************************************
   ChampSim Multicore Out-of-Order Simulator
   Last compiled: Dec 21 2023 19:58:01
*************************************************

trace_0 ./test_trace/462.libquantum-714B.champsimtrace.xz
CPU 0 L1D next line prefetcher
CPU 0 L2C next line prefetcher
Initialize SRRIP state
warmup_instructions 100000000
simulation_instructions 100000000
champsim_seed 222

num_cpus 1
cpu_freq 4000
dram_io_freq 2400
page_size 4096
block_size 64
max_read_per_cycle 8
max_fill_per_cycle 1
dram_channels 1
dram_ranks 1
dram_banks 8
dram_rows 65536
dram_columns 128
dram_row_size 8
dram_size 4096
dram_pages 1048576

fetch_width 6
decode_width 6
exec_width 4
lq_width 2
sq_width 2
retire_width 4
scheduler_size 128
branch_mispredict_penalty 20
rob_size 256
lq_size 72
sq_size 56
num_instr_destinations_sparc 4
num_instr_destinations 2
num_instr_sources 4

itlb_set 16
itlb_way 8
itlb_rq_size 16
itlb_wq_size 16
itlb_pq_size 0
itlb_mshr_size 8
itlb_latency 1

dtlb_set 16
dtlb_way 4
dtlb_rq_size 16
dtlb_wq_size 16
dtlb_pq_size 0
dtlb_mshr_size 8
dtlb_latency 1

stlb_set 128
stlb_way 12
stlb_rq_size 32
stlb_wq_size 32
stlb_pq_size 0
stlb_mshr_size 16
stlb_latency 8

l1i_size 32
l1i_set 64
l1i_way 8
l1i_rq_size 64
l1i_wq_size 64
l1i_pq_size 8
l1i_mshr_size 8
l1i_latency 1

l1d_size 32
l1d_set 64
l1d_way 8
l1d_rq_size 64
l1d_wq_size 64
l1d_pq_size 8
l1d_mshr_size 16
l1d_latency 4

l2c_size 512
l2c_set 1024
l2c_way 8
l2c_rq_size 32
l2c_wq_size 32
l2c_pq_size 16
l2c_mshr_size 32
l2c_latency 10

llc_size 2048
llc_set 2048
llc_way 16
llc_rq_size 32
llc_wq_size 32
llc_pq_size 32
llc_mshr_size 64
llc_latency 20

dram_channel_width 8
dram_wq_size 64
dram_rq_size 64
tRP 15
tRCD 15
tCAS 12.5
dram_dbus_turn_around_time 30
dram_write_high_wm 56
dram_write_low_wm 48
min_dram_writes_per_switch 16
dram_mtps 2400
dram_dbus_return_time 13


Heartbeat CPU  0 instructions:    1000000 cycles:     581510 heartbeat IPC: 1.71966 cumulative IPC: 1.71966 (Simulation time: 0 hr 0 min 1 sec) 
Heartbeat CPU  0 instructions:    2000003 cycles:    1163543 heartbeat IPC: 1.71812 cumulative IPC: 1.71889 (Simulation time: 0 hr 0 min 2 sec) 
Heartbeat CPU  0 instructions:    3000002 cycles:    1745575 heartbeat IPC: 1.71812 cumulative IPC: 1.71863 (Simulation time: 0 hr 0 min 2 sec) 
Heartbeat CPU  0 instructions:    4000000 cycles:    2327604 heartbeat IPC: 1.71812 cumulative IPC: 1.71851 (Simulation time: 0 hr 0 min 3 sec) 
Heartbeat CPU  0 instructions:    5000000 cycles:    2909636 heartbeat IPC: 1.71812 cumulative IPC: 1.71843 (Simulation time: 0 hr 0 min 4 sec) 
Heartbeat CPU  0 instructions:    6000000 cycles:    3491670 heartbeat IPC: 1.71811 cumulative IPC: 1.71838 (Simulation time: 0 hr 0 min 5 sec) 
Heartbeat CPU  0 instructions:    7000000 cycles:    4073701 heartbeat IPC: 1.71812 cumulative IPC: 1.71834 (Simulation time: 0 hr 0 min 6 sec) 
Heartbeat CPU  0 instructions:    8000000 cycles:    4655734 heartbeat IPC: 1.71812 cumulative IPC: 1.71831 (Simulation time: 0 hr 0 min 7 sec) 
Heartbeat CPU  0 instructions:    9000002 cycles:    5192884 heartbeat IPC: 1.86168 cumulative IPC: 1.73314 (Simulation time: 0 hr 0 min 8 sec) 
Heartbeat CPU  0 instructions:   10000002 cycles:    5715746 heartbeat IPC: 1.91255 cumulative IPC: 1.74955 (Simulation time: 0 hr 0 min 9 sec) 
Heartbeat CPU  0 instructions:   11000001 cycles:    6238631 heartbeat IPC: 1.91246 cumulative IPC: 1.76321 (Simulation time: 0 hr 0 min 11 sec) 
Heartbeat CPU  0 instructions:   12000000 cycles:    6761493 heartbeat IPC: 1.91255 cumulative IPC: 1.77476 (Simulation time: 0 hr 0 min 12 sec) 
Heartbeat CPU  0 instructions:   13000001 cycles:    7284402 heartbeat IPC: 1.91238 cumulative IPC: 1.78464 (Simulation time: 0 hr 0 min 13 sec) 
Heartbeat CPU  0 instructions:   14000001 cycles:    7807264 heartbeat IPC: 1.91255 cumulative IPC: 1.79320 (Simulation time: 0 hr 0 min 15 sec) 
Heartbeat CPU  0 instructions:   15000000 cycles:    8330149 heartbeat IPC: 1.91246 cumulative IPC: 1.80069 (Simulation time: 0 hr 0 min 16 sec) 
Heartbeat CPU  0 instructions:   16000000 cycles:    8853011 heartbeat IPC: 1.91255 cumulative IPC: 1.80729 (Simulation time: 0 hr 0 min 17 sec) 
Heartbeat CPU  0 instructions:   17000000 cycles:    9375920 heartbeat IPC: 1.91238 cumulative IPC: 1.81316 (Simulation time: 0 hr 0 min 19 sec) 
Heartbeat CPU  0 instructions:   18000000 cycles:    9898782 heartbeat IPC: 1.91255 cumulative IPC: 1.81841 (Simulation time: 0 hr 0 min 20 sec) 
Heartbeat CPU  0 instructions:   19000003 cycles:   10421667 heartbeat IPC: 1.91247 cumulative IPC: 1.82313 (Simulation time: 0 hr 0 min 21 sec) 
Heartbeat CPU  0 instructions:   20000000 cycles:   10944529 heartbeat IPC: 1.91254 cumulative IPC: 1.82740 (Simulation time: 0 hr 0 min 23 sec) 
Heartbeat CPU  0 instructions:   21000003 cycles:   11467438 heartbeat IPC: 1.91238 cumulative IPC: 1.83127 (Simulation time: 0 hr 0 min 24 sec) 
Heartbeat CPU  0 instructions:   22000003 cycles:   11990300 heartbeat IPC: 1.91255 cumulative IPC: 1.83482 (Simulation time: 0 hr 0 min 26 sec) 
Heartbeat CPU  0 instructions:   23000000 cycles:   12504816 heartbeat IPC: 1.94357 cumulative IPC: 1.83929 (Simulation time: 0 hr 0 min 27 sec) 
Heartbeat CPU  0 instructions:   24000000 cycles:   12925097 heartbeat IPC: 2.37936 cumulative IPC: 1.85685 (Simulation time: 0 hr 0 min 28 sec) 
Heartbeat CPU  0 instructions:   25000000 cycles:   13345373 heartbeat IPC: 2.37939 cumulative IPC: 1.87331 (Simulation time: 0 hr 0 min 28 sec) 
Heartbeat CPU  0 instructions:   26000000 cycles:   13765659 heartbeat IPC: 2.37933 cumulative IPC: 1.88876 (Simulation time: 0 hr 0 min 29 sec) 
Heartbeat CPU  0 instructions:   27000000 cycles:   14185970 heartbeat IPC: 2.37919 cumulative IPC: 1.90329 (Simulation time: 0 hr 0 min 30 sec) 
Heartbeat CPU  0 instructions:   28000000 cycles:   14606278 heartbeat IPC: 2.37921 cumulative IPC: 1.91698 (Simulation time: 0 hr 0 min 31 sec) 
Heartbeat CPU  0 instructions:   29000002 cycles:   15026556 heartbeat IPC: 2.37938 cumulative IPC: 1.92992 (Simulation time: 0 hr 0 min 31 sec) 
Heartbeat CPU  0 instructions:   30000003 cycles:   15446822 heartbeat IPC: 2.37945 cumulative IPC: 1.94215 (Simulation time: 0 hr 0 min 32 sec) 
Heartbeat CPU  0 instructions:   31000001 cycles:   15867116 heartbeat IPC: 2.37928 cumulative IPC: 1.95373 (Simulation time: 0 hr 0 min 33 sec) 
Heartbeat CPU  0 instructions:   32000000 cycles:   16287435 heartbeat IPC: 2.37914 cumulative IPC: 1.96470 (Simulation time: 0 hr 0 min 33 sec) 
Heartbeat CPU  0 instructions:   33000003 cycles:   16707709 heartbeat IPC: 2.37941 cumulative IPC: 1.97514 (Simulation time: 0 hr 0 min 34 sec) 
Heartbeat CPU  0 instructions:   34000000 cycles:   17127971 heartbeat IPC: 2.37946 cumulative IPC: 1.98506 (Simulation time: 0 hr 0 min 35 sec) 
Heartbeat CPU  0 instructions:   35000002 cycles:   17548260 heartbeat IPC: 2.37932 cumulative IPC: 1.99450 (Simulation time: 0 hr 0 min 36 sec) 
Heartbeat CPU  0 instructions:   36000000 cycles:   17968573 heartbeat IPC: 2.37917 cumulative IPC: 2.00350 (Simulation time: 0 hr 0 min 36 sec) 
Heartbeat CPU  0 instructions:   37000000 cycles:   18388889 heartbeat IPC: 2.37916 cumulative IPC: 2.01208 (Simulation time: 0 hr 0 min 37 sec) 
Heartbeat CPU  0 instructions:   38000002 cycles:   18809158 heartbeat IPC: 2.37943 cumulative IPC: 2.02029 (Simulation time: 0 hr 0 min 38 sec) 
Heartbeat CPU  0 instructions:   39000000 cycles:   19229441 heartbeat IPC: 2.37934 cumulative IPC: 2.02814 (Simulation time: 0 hr 0 min 38 sec) 
Heartbeat CPU  0 instructions:   40000000 cycles:   19649735 heartbeat IPC: 2.37929 cumulative IPC: 2.03565 (Simulation time: 0 hr 0 min 39 sec) 
Heartbeat CPU  0 instructions:   41000002 cycles:   20070071 heartbeat IPC: 2.37905 cumulative IPC: 2.04284 (Simulation time: 0 hr 0 min 40 sec) 
Heartbeat CPU  0 instructions:   42000003 cycles:   20490341 heartbeat IPC: 2.37943 cumulative IPC: 2.04975 (Simulation time: 0 hr 0 min 41 sec) 
Heartbeat CPU  0 instructions:   43000001 cycles:   20910611 heartbeat IPC: 2.37942 cumulative IPC: 2.05637 (Simulation time: 0 hr 0 min 41 sec) 
Heartbeat CPU  0 instructions:   44000000 cycles:   21330881 heartbeat IPC: 2.37942 cumulative IPC: 2.06274 (Simulation time: 0 hr 0 min 42 sec) 
Heartbeat CPU  0 instructions:   45000001 cycles:   21751184 heartbeat IPC: 2.37924 cumulative IPC: 2.06885 (Simulation time: 0 hr 0 min 43 sec) 
Heartbeat CPU  0 instructions:   46000001 cycles:   22171491 heartbeat IPC: 2.37921 cumulative IPC: 2.07474 (Simulation time: 0 hr 0 min 44 sec) 
Heartbeat CPU  0 instructions:   47000000 cycles:   22750998 heartbeat IPC: 1.72560 cumulative IPC: 2.06584 (Simulation time: 0 hr 0 min 44 sec) 
Heartbeat CPU  0 instructions:   48000000 cycles:   23333737 heartbeat IPC: 1.71603 cumulative IPC: 2.05711 (Simulation time: 0 hr 0 min 45 sec) 
Heartbeat CPU  0 instructions:   49000000 cycles:   23916481 heartbeat IPC: 1.71602 cumulative IPC: 2.04880 (Simulation time: 0 hr 0 min 46 sec) 
Heartbeat CPU  0 instructions:   50000002 cycles:   24499223 heartbeat IPC: 1.71603 cumulative IPC: 2.04088 (Simulation time: 0 hr 0 min 47 sec) 
Heartbeat CPU  0 instructions:   51000002 cycles:   25081964 heartbeat IPC: 1.71603 cumulative IPC: 2.03333 (Simulation time: 0 hr 0 min 48 sec) 
Heartbeat CPU  0 instructions:   52000000 cycles:   25664703 heartbeat IPC: 1.71603 cumulative IPC: 2.02613 (Simulation time: 0 hr 0 min 48 sec) 
Heartbeat CPU  0 instructions:   53000000 cycles:   26247444 heartbeat IPC: 1.71603 cumulative IPC: 2.01924 (Simulation time: 0 hr 0 min 49 sec) 
Heartbeat CPU  0 instructions:   54000003 cycles:   26830187 heartbeat IPC: 1.71603 cumulative IPC: 2.01266 (Simulation time: 0 hr 0 min 50 sec) 
Heartbeat CPU  0 instructions:   55000002 cycles:   27412929 heartbeat IPC: 1.71602 cumulative IPC: 2.00635 (Simulation time: 0 hr 0 min 51 sec) 
Heartbeat CPU  0 instructions:   56000000 cycles:   27995668 heartbeat IPC: 1.71603 cumulative IPC: 2.00031 (Simulation time: 0 hr 0 min 52 sec) 
Heartbeat CPU  0 instructions:   57000000 cycles:   28578410 heartbeat IPC: 1.71603 cumulative IPC: 1.99451 (Simulation time: 0 hr 0 min 52 sec) 
Heartbeat CPU  0 instructions:   58000000 cycles:   29161154 heartbeat IPC: 1.71602 cumulative IPC: 1.98895 (Simulation time: 0 hr 0 min 53 sec) 
Heartbeat CPU  0 instructions:   59000000 cycles:   29743895 heartbeat IPC: 1.71603 cumulative IPC: 1.98360 (Simulation time: 0 hr 0 min 54 sec) 
Heartbeat CPU  0 instructions:   60000000 cycles:   30326638 heartbeat IPC: 1.71602 cumulative IPC: 1.97846 (Simulation time: 0 hr 0 min 55 sec) 
Heartbeat CPU  0 instructions:   61000002 cycles:   30909378 heartbeat IPC: 1.71603 cumulative IPC: 1.97351 (Simulation time: 0 hr 0 min 56 sec) 
Heartbeat CPU  0 instructions:   62000002 cycles:   31492119 heartbeat IPC: 1.71603 cumulative IPC: 1.96875 (Simulation time: 0 hr 0 min 56 sec) 
Heartbeat CPU  0 instructions:   63000001 cycles:   32074861 heartbeat IPC: 1.71602 cumulative IPC: 1.96416 (Simulation time: 0 hr 0 min 57 sec) 
Heartbeat CPU  0 instructions:   64000000 cycles:   32657600 heartbeat IPC: 1.71603 cumulative IPC: 1.95973 (Simulation time: 0 hr 0 min 58 sec) 
Heartbeat CPU  0 instructions:   65000003 cycles:   33240343 heartbeat IPC: 1.71603 cumulative IPC: 1.95546 (Simulation time: 0 hr 0 min 59 sec) 
Heartbeat CPU  0 instructions:   66000002 cycles:   33823085 heartbeat IPC: 1.71602 cumulative IPC: 1.95133 (Simulation time: 0 hr 1 min 0 sec) 
Heartbeat CPU  0 instructions:   67000001 cycles:   34405824 heartbeat IPC: 1.71603 cumulative IPC: 1.94734 (Simulation time: 0 hr 1 min 1 sec) 
Heartbeat CPU  0 instructions:   68000000 cycles:   34988567 heartbeat IPC: 1.71602 cumulative IPC: 1.94349 (Simulation time: 0 hr 1 min 1 sec) 
Heartbeat CPU  0 instructions:   69000000 cycles:   35571312 heartbeat IPC: 1.71602 cumulative IPC: 1.93977 (Simulation time: 0 hr 1 min 2 sec) 
Heartbeat CPU  0 instructions:   70000000 cycles:   36097434 heartbeat IPC: 1.90070 cumulative IPC: 1.93920 (Simulation time: 0 hr 1 min 3 sec) 
Heartbeat CPU  0 instructions:   71000003 cycles:   36618084 heartbeat IPC: 1.92068 cumulative IPC: 1.93893 (Simulation time: 0 hr 1 min 5 sec) 
Heartbeat CPU  0 instructions:   72000000 cycles:   37138714 heartbeat IPC: 1.92074 cumulative IPC: 1.93868 (Simulation time: 0 hr 1 min 6 sec) 
Heartbeat CPU  0 instructions:   73000002 cycles:   37659391 heartbeat IPC: 1.92058 cumulative IPC: 1.93843 (Simulation time: 0 hr 1 min 8 sec) 
Heartbeat CPU  0 instructions:   74000002 cycles:   38180021 heartbeat IPC: 1.92075 cumulative IPC: 1.93819 (Simulation time: 0 hr 1 min 9 sec) 
Heartbeat CPU  0 instructions:   75000001 cycles:   38700675 heartbeat IPC: 1.92066 cumulative IPC: 1.93795 (Simulation time: 0 hr 1 min 10 sec) 
Heartbeat CPU  0 instructions:   76000000 cycles:   39221305 heartbeat IPC: 1.92075 cumulative IPC: 1.93772 (Simulation time: 0 hr 1 min 12 sec) 
Heartbeat CPU  0 instructions:   77000001 cycles:   39741982 heartbeat IPC: 1.92058 cumulative IPC: 1.93750 (Simulation time: 0 hr 1 min 13 sec) 
Heartbeat CPU  0 instructions:   78000001 cycles:   40262612 heartbeat IPC: 1.92075 cumulative IPC: 1.93728 (Simulation time: 0 hr 1 min 14 sec) 
Heartbeat CPU  0 instructions:   79000000 cycles:   40783266 heartbeat IPC: 1.92066 cumulative IPC: 1.93707 (Simulation time: 0 hr 1 min 16 sec) 
Heartbeat CPU  0 instructions:   80000000 cycles:   41303896 heartbeat IPC: 1.92075 cumulative IPC: 1.93686 (Simulation time: 0 hr 1 min 17 sec) 
Heartbeat CPU  0 instructions:   81000000 cycles:   41824573 heartbeat IPC: 1.92058 cumulative IPC: 1.93666 (Simulation time: 0 hr 1 min 18 sec) 
Heartbeat CPU  0 instructions:   82000000 cycles:   42345203 heartbeat IPC: 1.92075 cumulative IPC: 1.93646 (Simulation time: 0 hr 1 min 20 sec) 
Heartbeat CPU  0 instructions:   83000003 cycles:   42865855 heartbeat IPC: 1.92067 cumulative IPC: 1.93627 (Simulation time: 0 hr 1 min 21 sec) 
Heartbeat CPU  0 instructions:   84000000 cycles:   43363101 heartbeat IPC: 2.01107 cumulative IPC: 1.93713 (Simulation time: 0 hr 1 min 22 sec) 
Heartbeat CPU  0 instructions:   85000000 cycles:   43783384 heartbeat IPC: 2.37935 cumulative IPC: 1.94138 (Simulation time: 0 hr 1 min 23 sec) 
Heartbeat CPU  0 instructions:   86000001 cycles:   44203671 heartbeat IPC: 2.37933 cumulative IPC: 1.94554 (Simulation time: 0 hr 1 min 24 sec) 
Heartbeat CPU  0 instructions:   87000003 cycles:   44623972 heartbeat IPC: 2.37925 cumulative IPC: 1.94962 (Simulation time: 0 hr 1 min 25 sec) 
Heartbeat CPU  0 instructions:   88000000 cycles:   45044332 heartbeat IPC: 2.37891 cumulative IPC: 1.95363 (Simulation time: 0 hr 1 min 25 sec) 
Heartbeat CPU  0 instructions:   89000001 cycles:   45464612 heartbeat IPC: 2.37937 cumulative IPC: 1.95757 (Simulation time: 0 hr 1 min 26 sec) 
Heartbeat CPU  0 instructions:   90000001 cycles:   45884891 heartbeat IPC: 2.37937 cumulative IPC: 1.96143 (Simulation time: 0 hr 1 min 27 sec) 
Heartbeat CPU  0 instructions:   91000000 cycles:   46305171 heartbeat IPC: 2.37936 cumulative IPC: 1.96522 (Simulation time: 0 hr 1 min 28 sec) 
Heartbeat CPU  0 instructions:   92000000 cycles:   46725478 heartbeat IPC: 2.37921 cumulative IPC: 1.96895 (Simulation time: 0 hr 1 min 28 sec) 
Heartbeat CPU  0 instructions:   93000003 cycles:   47145811 heartbeat IPC: 2.37907 cumulative IPC: 1.97260 (Simulation time: 0 hr 1 min 29 sec) 
Heartbeat CPU  0 instructions:   94000000 cycles:   47566093 heartbeat IPC: 2.37935 cumulative IPC: 1.97620 (Simulation time: 0 hr 1 min 30 sec) 
Heartbeat CPU  0 instructions:   95000002 cycles:   47986376 heartbeat IPC: 2.37935 cumulative IPC: 1.97973 (Simulation time: 0 hr 1 min 31 sec) 
Heartbeat CPU  0 instructions:   96000000 cycles:   48406671 heartbeat IPC: 2.37928 cumulative IPC: 1.98320 (Simulation time: 0 hr 1 min 31 sec) 
Heartbeat CPU  0 instructions:   97000000 cycles:   48827027 heartbeat IPC: 2.37894 cumulative IPC: 1.98660 (Simulation time: 0 hr 1 min 32 sec) 
Heartbeat CPU  0 instructions:   98000000 cycles:   49247317 heartbeat IPC: 2.37931 cumulative IPC: 1.98996 (Simulation time: 0 hr 1 min 33 sec) 
Heartbeat CPU  0 instructions:   99000003 cycles:   49667612 heartbeat IPC: 2.37929 cumulative IPC: 1.99325 (Simulation time: 0 hr 1 min 33 sec) 
Heartbeat CPU  0 instructions:  100000000 cycles:   50087897 heartbeat IPC: 2.37933 cumulative IPC: 1.99649 (Simulation time: 0 hr 1 min 34 sec) 

Warmup complete CPU  0 instructions:  100000001 cycles:   50087899 (Simulation time: 0 hr 1 min 34 sec) 

Heartbeat CPU  0 instructions:  101000003 cycles:   51390708 heartbeat IPC: 0.76757 cumulative IPC: 0.76757 (Simulation time: 0 hr 1 min 36 sec) 
Heartbeat CPU  0 instructions:  102000003 cycles:   52701247 heartbeat IPC: 0.76304 cumulative IPC: 0.76530 (Simulation time: 0 hr 1 min 37 sec) 
Heartbeat CPU  0 instructions:  103000001 cycles:   54005688 heartbeat IPC: 0.76661 cumulative IPC: 0.76574 (Simulation time: 0 hr 1 min 39 sec) 
Heartbeat CPU  0 instructions:  104000000 cycles:   55314275 heartbeat IPC: 0.76418 cumulative IPC: 0.76535 (Simulation time: 0 hr 1 min 40 sec) 
Heartbeat CPU  0 instructions:  105000000 cycles:   56620469 heartbeat IPC: 0.76558 cumulative IPC: 0.76540 (Simulation time: 0 hr 1 min 41 sec) 
Heartbeat CPU  0 instructions:  106000002 cycles:   57926911 heartbeat IPC: 0.76544 cumulative IPC: 0.76540 (Simulation time: 0 hr 1 min 43 sec) 
Heartbeat CPU  0 instructions:  107000001 cycles:   59238474 heartbeat IPC: 0.76245 cumulative IPC: 0.76498 (Simulation time: 0 hr 1 min 44 sec) 
Heartbeat CPU  0 instructions:  108000000 cycles:   60522816 heartbeat IPC: 0.77861 cumulative IPC: 0.76666 (Simulation time: 0 hr 1 min 46 sec) 
Heartbeat CPU  0 instructions:  109000000 cycles:   61892305 heartbeat IPC: 0.73020 cumulative IPC: 0.76243 (Simulation time: 0 hr 1 min 47 sec) 
Heartbeat CPU  0 instructions:  110000001 cycles:   63314083 heartbeat IPC: 0.70335 cumulative IPC: 0.75608 (Simulation time: 0 hr 1 min 49 sec) 
Heartbeat CPU  0 instructions:  111000001 cycles:   64753849 heartbeat IPC: 0.69456 cumulative IPC: 0.75004 (Simulation time: 0 hr 1 min 50 sec) 
Heartbeat CPU  0 instructions:  112000000 cycles:   66163374 heartbeat IPC: 0.70946 cumulative IPC: 0.74648 (Simulation time: 0 hr 1 min 52 sec) 
Heartbeat CPU  0 instructions:  113000002 cycles:   67594241 heartbeat IPC: 0.69888 cumulative IPC: 0.74259 (Simulation time: 0 hr 1 min 53 sec) 
Heartbeat CPU  0 instructions:  114000002 cycles:   69031383 heartbeat IPC: 0.69583 cumulative IPC: 0.73904 (Simulation time: 0 hr 1 min 55 sec) 
Heartbeat CPU  0 instructions:  115000003 cycles:   70429279 heartbeat IPC: 0.71536 cumulative IPC: 0.73741 (Simulation time: 0 hr 1 min 56 sec) 
Heartbeat CPU  0 instructions:  116000000 cycles:   71875596 heartbeat IPC: 0.69141 cumulative IPC: 0.73436 (Simulation time: 0 hr 1 min 58 sec) 
Heartbeat CPU  0 instructions:  117000000 cycles:   73293989 heartbeat IPC: 0.70502 cumulative IPC: 0.73257 (Simulation time: 0 hr 1 min 59 sec) 
Heartbeat CPU  0 instructions:  118000000 cycles:   74713080 heartbeat IPC: 0.70468 cumulative IPC: 0.73096 (Simulation time: 0 hr 2 min 1 sec) 
Heartbeat CPU  0 instructions:  119000001 cycles:   76154148 heartbeat IPC: 0.69393 cumulative IPC: 0.72891 (Simulation time: 0 hr 2 min 3 sec) 
Heartbeat CPU  0 instructions:  120000000 cycles:   77565517 heartbeat IPC: 0.70853 cumulative IPC: 0.72787 (Simulation time: 0 hr 2 min 4 sec) 
Heartbeat CPU  0 instructions:  121000000 cycles:   79004271 heartbeat IPC: 0.69505 cumulative IPC: 0.72623 (Simulation time: 0 hr 2 min 6 sec) 
Heartbeat CPU  0 instructions:  122000002 cycles:   80434267 heartbeat IPC: 0.69930 cumulative IPC: 0.72496 (Simulation time: 0 hr 2 min 7 sec) 
Heartbeat CPU  0 instructions:  123000002 cycles:   81840995 heartbeat IPC: 0.71087 cumulative IPC: 0.72434 (Simulation time: 0 hr 2 min 9 sec) 
Heartbeat CPU  0 instructions:  124000000 cycles:   83286089 heartbeat IPC: 0.69200 cumulative IPC: 0.72293 (Simulation time: 0 hr 2 min 10 sec) 
Heartbeat CPU  0 instructions:  125000003 cycles:   84706796 heartbeat IPC: 0.70388 cumulative IPC: 0.72215 (Simulation time: 0 hr 2 min 12 sec) 
Heartbeat CPU  0 instructions:  126000000 cycles:   86134538 heartbeat IPC: 0.70040 cumulative IPC: 0.72129 (Simulation time: 0 hr 2 min 13 sec) 
Heartbeat CPU  0 instructions:  127000000 cycles:   87571617 heartbeat IPC: 0.69586 cumulative IPC: 0.72031 (Simulation time: 0 hr 2 min 15 sec) 
Heartbeat CPU  0 instructions:  128000000 cycles:   88978299 heartbeat IPC: 0.71089 cumulative IPC: 0.71997 (Simulation time: 0 hr 2 min 16 sec) 
Heartbeat CPU  0 instructions:  129000001 cycles:   90423481 heartbeat IPC: 0.69196 cumulative IPC: 0.71897 (Simulation time: 0 hr 2 min 18 sec) 
Heartbeat CPU  0 instructions:  130000001 cycles:   91847418 heartbeat IPC: 0.70228 cumulative IPC: 0.71840 (Simulation time: 0 hr 2 min 19 sec) 
Heartbeat CPU  0 instructions:  131000000 cycles:   93534634 heartbeat IPC: 0.59269 cumulative IPC: 0.71352 (Simulation time: 0 hr 2 min 21 sec) 
Heartbeat CPU  0 instructions:  132000000 cycles:   96478646 heartbeat IPC: 0.33967 cumulative IPC: 0.68979 (Simulation time: 0 hr 2 min 23 sec) 
Heartbeat CPU  0 instructions:  133000000 cycles:   99426472 heartbeat IPC: 0.33923 cumulative IPC: 0.66885 (Simulation time: 0 hr 2 min 26 sec) 
Heartbeat CPU  0 instructions:  134000000 cycles:  102385947 heartbeat IPC: 0.33790 cumulative IPC: 0.65012 (Simulation time: 0 hr 2 min 28 sec) 
Heartbeat CPU  0 instructions:  135000000 cycles:  105341452 heartbeat IPC: 0.33835 cumulative IPC: 0.63344 (Simulation time: 0 hr 2 min 30 sec) 
Heartbeat CPU  0 instructions:  136000000 cycles:  108292916 heartbeat IPC: 0.33881 cumulative IPC: 0.61850 (Simulation time: 0 hr 2 min 32 sec) 
Heartbeat CPU  0 instructions:  137000000 cycles:  111261415 heartbeat IPC: 0.33687 cumulative IPC: 0.60484 (Simulation time: 0 hr 2 min 35 sec) 
Heartbeat CPU  0 instructions:  138000000 cycles:  114220650 heartbeat IPC: 0.33793 cumulative IPC: 0.59252 (Simulation time: 0 hr 2 min 37 sec) 
Heartbeat CPU  0 instructions:  139000000 cycles:  117178093 heartbeat IPC: 0.33813 cumulative IPC: 0.58131 (Simulation time: 0 hr 2 min 39 sec) 
Heartbeat CPU  0 instructions:  140000000 cycles:  120141082 heartbeat IPC: 0.33750 cumulative IPC: 0.57099 (Simulation time: 0 hr 2 min 41 sec) 
Heartbeat CPU  0 instructions:  141000000 cycles:  123103668 heartbeat IPC: 0.33754 cumulative IPC: 0.56152 (Simulation time: 0 hr 2 min 44 sec) 
Heartbeat CPU  0 instructions:  142000000 cycles:  126061940 heartbeat IPC: 0.33804 cumulative IPC: 0.55282 (Simulation time: 0 hr 2 min 46 sec) 
Heartbeat CPU  0 instructions:  143000000 cycles:  129020548 heartbeat IPC: 0.33800 cumulative IPC: 0.54477 (Simulation time: 0 hr 2 min 48 sec) 
Heartbeat CPU  0 instructions:  144000000 cycles:  131975926 heartbeat IPC: 0.33837 cumulative IPC: 0.53732 (Simulation time: 0 hr 2 min 50 sec) 
Heartbeat CPU  0 instructions:  145000002 cycles:  134688505 heartbeat IPC: 0.36865 cumulative IPC: 0.53191 (Simulation time: 0 hr 2 min 52 sec) 
Heartbeat CPU  0 instructions:  146000000 cycles:  136768639 heartbeat IPC: 0.48074 cumulative IPC: 0.53068 (Simulation time: 0 hr 2 min 54 sec) 
Heartbeat CPU  0 instructions:  147000000 cycles:  138574623 heartbeat IPC: 0.55371 cumulative IPC: 0.53115 (Simulation time: 0 hr 2 min 56 sec) 
Heartbeat CPU  0 instructions:  148000000 cycles:  140466036 heartbeat IPC: 0.52871 cumulative IPC: 0.53110 (Simulation time: 0 hr 2 min 58 sec) 
Heartbeat CPU  0 instructions:  149000000 cycles:  142244559 heartbeat IPC: 0.56226 cumulative IPC: 0.53170 (Simulation time: 0 hr 2 min 59 sec) 
Heartbeat CPU  0 instructions:  150000001 cycles:  143690395 heartbeat IPC: 0.69164 cumulative IPC: 0.53417 (Simulation time: 0 hr 3 min 1 sec) 
Heartbeat CPU  0 instructions:  151000001 cycles:  144991369 heartbeat IPC: 0.76865 cumulative IPC: 0.53739 (Simulation time: 0 hr 3 min 2 sec) 
Heartbeat CPU  0 instructions:  152000000 cycles:  146292629 heartbeat IPC: 0.76849 cumulative IPC: 0.54051 (Simulation time: 0 hr 3 min 4 sec) 
Heartbeat CPU  0 instructions:  153000001 cycles:  147601845 heartbeat IPC: 0.76382 cumulative IPC: 0.54351 (Simulation time: 0 hr 3 min 5 sec) 
Heartbeat CPU  0 instructions:  154000003 cycles:  148898060 heartbeat IPC: 0.77148 cumulative IPC: 0.54650 (Simulation time: 0 hr 3 min 7 sec) 
Heartbeat CPU  0 instructions:  155000001 cycles:  150209195 heartbeat IPC: 0.76270 cumulative IPC: 0.54933 (Simulation time: 0 hr 3 min 8 sec) 
Heartbeat CPU  0 instructions:  156000000 cycles:  151514054 heartbeat IPC: 0.76637 cumulative IPC: 0.55213 (Simulation time: 0 hr 3 min 10 sec) 
Heartbeat CPU  0 instructions:  157000002 cycles:  152816760 heartbeat IPC: 0.76763 cumulative IPC: 0.55486 (Simulation time: 0 hr 3 min 11 sec) 
Heartbeat CPU  0 instructions:  158000000 cycles:  154121348 heartbeat IPC: 0.76652 cumulative IPC: 0.55751 (Simulation time: 0 hr 3 min 13 sec) 
Heartbeat CPU  0 instructions:  159000002 cycles:  155419613 heartbeat IPC: 0.77026 cumulative IPC: 0.56014 (Simulation time: 0 hr 3 min 14 sec) 
Heartbeat CPU  0 instructions:  160000000 cycles:  156726998 heartbeat IPC: 0.76488 cumulative IPC: 0.56265 (Simulation time: 0 hr 3 min 15 sec) 
Heartbeat CPU  0 instructions:  161000000 cycles:  158031064 heartbeat IPC: 0.76683 cumulative IPC: 0.56511 (Simulation time: 0 hr 3 min 17 sec) 
Heartbeat CPU  0 instructions:  162000002 cycles:  159332394 heartbeat IPC: 0.76845 cumulative IPC: 0.56753 (Simulation time: 0 hr 3 min 18 sec) 
Heartbeat CPU  0 instructions:  163000000 cycles:  160638987 heartbeat IPC: 0.76535 cumulative IPC: 0.56987 (Simulation time: 0 hr 3 min 20 sec) 
Heartbeat CPU  0 instructions:  164000000 cycles:  161941298 heartbeat IPC: 0.76787 cumulative IPC: 0.57218 (Simulation time: 0 hr 3 min 21 sec) 
Heartbeat CPU  0 instructions:  165000001 cycles:  163241985 heartbeat IPC: 0.76883 cumulative IPC: 0.57444 (Simulation time: 0 hr 3 min 23 sec) 
Heartbeat CPU  0 instructions:  166000003 cycles:  164548267 heartbeat IPC: 0.76553 cumulative IPC: 0.57662 (Simulation time: 0 hr 3 min 24 sec) 
Heartbeat CPU  0 instructions:  167000001 cycles:  165846092 heartbeat IPC: 0.77052 cumulative IPC: 0.57879 (Simulation time: 0 hr 3 min 26 sec) 
Heartbeat CPU  0 instructions:  168000000 cycles:  167161876 heartbeat IPC: 0.76000 cumulative IPC: 0.58083 (Simulation time: 0 hr 3 min 27 sec) 
Heartbeat CPU  0 instructions:  169000000 cycles:  168457424 heartbeat IPC: 0.77187 cumulative IPC: 0.58292 (Simulation time: 0 hr 3 min 29 sec) 
Heartbeat CPU  0 instructions:  170000003 cycles:  169883905 heartbeat IPC: 0.70103 cumulative IPC: 0.58433 (Simulation time: 0 hr 3 min 30 sec) 
Heartbeat CPU  0 instructions:  171000001 cycles:  171358880 heartbeat IPC: 0.67798 cumulative IPC: 0.58547 (Simulation time: 0 hr 3 min 32 sec) 
Heartbeat CPU  0 instructions:  172000000 cycles:  172855617 heartbeat IPC: 0.66812 cumulative IPC: 0.58647 (Simulation time: 0 hr 3 min 33 sec) 
Heartbeat CPU  0 instructions:  173000001 cycles:  174334221 heartbeat IPC: 0.67631 cumulative IPC: 0.58754 (Simulation time: 0 hr 3 min 35 sec) 
Heartbeat CPU  0 instructions:  174000000 cycles:  175834990 heartbeat IPC: 0.66632 cumulative IPC: 0.58848 (Simulation time: 0 hr 3 min 37 sec) 
Heartbeat CPU  0 instructions:  175000002 cycles:  177320684 heartbeat IPC: 0.67309 cumulative IPC: 0.58947 (Simulation time: 0 hr 3 min 38 sec) 
Heartbeat CPU  0 instructions:  176000000 cycles:  178790676 heartbeat IPC: 0.68027 cumulative IPC: 0.59051 (Simulation time: 0 hr 3 min 40 sec) 
Heartbeat CPU  0 instructions:  177000002 cycles:  180300891 heartbeat IPC: 0.66216 cumulative IPC: 0.59134 (Simulation time: 0 hr 3 min 42 sec) 
Heartbeat CPU  0 instructions:  178000000 cycles:  181787625 heartbeat IPC: 0.67261 cumulative IPC: 0.59226 (Simulation time: 0 hr 3 min 43 sec) 
Heartbeat CPU  0 instructions:  179000003 cycles:  183274071 heartbeat IPC: 0.67275 cumulative IPC: 0.59315 (Simulation time: 0 hr 3 min 45 sec) 
Heartbeat CPU  0 instructions:  180000000 cycles:  184775244 heartbeat IPC: 0.66614 cumulative IPC: 0.59397 (Simulation time: 0 hr 3 min 47 sec) 
Heartbeat CPU  0 instructions:  181000000 cycles:  186247946 heartbeat IPC: 0.67902 cumulative IPC: 0.59489 (Simulation time: 0 hr 3 min 48 sec) 
Heartbeat CPU  0 instructions:  182000001 cycles:  187746824 heartbeat IPC: 0.66717 cumulative IPC: 0.59568 (Simulation time: 0 hr 3 min 50 sec) 
Heartbeat CPU  0 instructions:  183000000 cycles:  189238828 heartbeat IPC: 0.67024 cumulative IPC: 0.59647 (Simulation time: 0 hr 3 min 51 sec) 
Heartbeat CPU  0 instructions:  184000000 cycles:  190716014 heartbeat IPC: 0.67696 cumulative IPC: 0.59732 (Simulation time: 0 hr 3 min 53 sec) 
Heartbeat CPU  0 instructions:  185000001 cycles:  192226933 heartbeat IPC: 0.66185 cumulative IPC: 0.59801 (Simulation time: 0 hr 3 min 55 sec) 
Heartbeat CPU  0 instructions:  186000002 cycles:  193705824 heartbeat IPC: 0.67618 cumulative IPC: 0.59881 (Simulation time: 0 hr 3 min 56 sec) 
Heartbeat CPU  0 instructions:  187000000 cycles:  195192612 heartbeat IPC: 0.67259 cumulative IPC: 0.59957 (Simulation time: 0 hr 3 min 58 sec) 
Heartbeat CPU  0 instructions:  188000000 cycles:  196689196 heartbeat IPC: 0.66819 cumulative IPC: 0.60027 (Simulation time: 0 hr 3 min 59 sec) 
Heartbeat CPU  0 instructions:  189000001 cycles:  198166888 heartbeat IPC: 0.67673 cumulative IPC: 0.60103 (Simulation time: 0 hr 4 min 1 sec) 
Heartbeat CPU  0 instructions:  190000000 cycles:  199667591 heartbeat IPC: 0.66635 cumulative IPC: 0.60169 (Simulation time: 0 hr 4 min 3 sec) 
Heartbeat CPU  0 instructions:  191000000 cycles:  201172595 heartbeat IPC: 0.66445 cumulative IPC: 0.60231 (Simulation time: 0 hr 4 min 4 sec) 
Heartbeat CPU  0 instructions:  192000000 cycles:  202920525 heartbeat IPC: 0.57211 cumulative IPC: 0.60197 (Simulation time: 0 hr 4 min 6 sec) 
Heartbeat CPU  0 instructions:  193000000 cycles:  205831320 heartbeat IPC: 0.34355 cumulative IPC: 0.59714 (Simulation time: 0 hr 4 min 8 sec) 
Heartbeat CPU  0 instructions:  194000000 cycles:  208773734 heartbeat IPC: 0.33986 cumulative IPC: 0.59237 (Simulation time: 0 hr 4 min 11 sec) 
Heartbeat CPU  0 instructions:  195000000 cycles:  211708334 heartbeat IPC: 0.34076 cumulative IPC: 0.58780 (Simulation time: 0 hr 4 min 13 sec) 
Heartbeat CPU  0 instructions:  196000000 cycles:  214644774 heartbeat IPC: 0.34055 cumulative IPC: 0.58338 (Simulation time: 0 hr 4 min 15 sec) 
Heartbeat CPU  0 instructions:  197000000 cycles:  217578092 heartbeat IPC: 0.34091 cumulative IPC: 0.57914 (Simulation time: 0 hr 4 min 17 sec) 
Heartbeat CPU  0 instructions:  198000000 cycles:  220518189 heartbeat IPC: 0.34012 cumulative IPC: 0.57502 (Simulation time: 0 hr 4 min 20 sec) 
Heartbeat CPU  0 instructions:  199000000 cycles:  223455230 heartbeat IPC: 0.34048 cumulative IPC: 0.57104 (Simulation time: 0 hr 4 min 22 sec) 
Heartbeat CPU  0 instructions:  200000000 cycles:  226392471 heartbeat IPC: 0.34046 cumulative IPC: 0.56720 (Simulation time: 0 hr 4 min 24 sec) 
Finished CPU 0 instructions: 100000000 cycles: 176304585 cumulative IPC: 0.56720 (Simulation time: 0 hr 4 min 24 sec) 

ChampSim completed all CPUs

[ROI Statistics]
Core_0_instructions 100000000
Core_0_cycles 176304585
Core_0_IPC 0.56720

Core_0_branch_prediction_accuracy 99.58952
Core_0_branch_MPKI 0.70683
Core_0_average_ROB_occupancy_at_mispredict 218.77088

Core_0_L1D_total_access 21108908
Core_0_L1D_total_hit 18532670
Core_0_L1D_total_miss 2576238
Core_0_L1D_loads 10329737
Core_0_L1D_load_hit 8293837
Core_0_L1D_load_miss 2035900
Core_0_L1D_RFOs 3492975
Core_0_L1D_RFO_hit 3492955
Core_0_L1D_RFO_miss 20
Core_0_L1D_prefetches 7286196
Core_0_L1D_prefetch_hit 6745878
Core_0_L1D_prefetch_miss 540318
Core_0_L1D_writebacks 0
Core_0_L1D_writeback_hit 0
Core_0_L1D_writeback_miss 0
Core_0_L1D_prefetch_requested 41930727
Core_0_L1D_prefetch_issued 41666126
Core_0_L1D_prefetch_useful 2987760
Core_0_L1D_prefetch_useless 30
Core_0_L1D_prefetch_late 1860226
Core_0_L1D_average_miss_latency 99148338.34138

Core_0_L1I_total_access 32357671
Core_0_L1I_total_hit 32357670
Core_0_L1I_total_miss 1
Core_0_L1I_loads 32357671
Core_0_L1I_load_hit 32357670
Core_0_L1I_load_miss 1
Core_0_L1I_RFOs 0
Core_0_L1I_RFO_hit 0
Core_0_L1I_RFO_miss 0
Core_0_L1I_prefetches 0
Core_0_L1I_prefetch_hit 0
Core_0_L1I_prefetch_miss 0
Core_0_L1I_writebacks 0
Core_0_L1I_writeback_hit 0
Core_0_L1I_writeback_miss 0
Core_0_L1I_prefetch_requested 0
Core_0_L1I_prefetch_issued 0
Core_0_L1I_prefetch_useful 0
Core_0_L1I_prefetch_useless 0
Core_0_L1I_prefetch_late 0
Core_0_L1I_average_miss_latency 231.00000

Core_0_L2C_total_access 3637737
Core_0_L2C_total_hit 1061488
Core_0_L2C_total_miss 2576249
Core_0_L2C_loads 175680
Core_0_L2C_load_hit 0
Core_0_L2C_load_miss 175680
Core_0_L2C_RFOs 20
Core_0_L2C_RFO_hit 0
Core_0_L2C_RFO_miss 20
Core_0_L2C_prefetches 2511891
Core_0_L2C_prefetch_hit 111342
Core_0_L2C_prefetch_miss 2400549
Core_0_L2C_writebacks 950146
Core_0_L2C_writeback_hit 950146
Core_0_L2C_writeback_miss 0
Core_0_L2C_prefetch_requested 4326984
Core_0_L2C_prefetch_issued 4259905
Core_0_L2C_prefetch_useful 147461
Core_0_L2C_prefetch_useless 4841016
Core_0_L2C_prefetch_late 42063
Core_0_L2C_average_miss_latency 171.99313

Core_0_LLC_total_access 3518953
Core_0_LLC_total_hit 650403
Core_0_LLC_total_miss 2868550
Core_0_LLC_loads 150006
Core_0_LLC_load_hit 0
Core_0_LLC_load_miss 150006
Core_0_LLC_RFOs 20
Core_0_LLC_RFO_hit 0
Core_0_LLC_RFO_miss 20
Core_0_LLC_prefetches 2426224
Core_0_LLC_prefetch_hit 0
Core_0_LLC_prefetch_miss 2426224
Core_0_LLC_writebacks 942703
Core_0_LLC_writeback_hit 650403
Core_0_LLC_writeback_miss 292300
Core_0_LLC_prefetch_requested 0
Core_0_LLC_prefetch_issued 0
Core_0_LLC_prefetch_useful 0
Core_0_LLC_prefetch_useless 5011101
Core_0_LLC_prefetch_late 0
Core_0_LLC_average_miss_latency 126.93460

Core_0_major_page_fault 0
Core_0_minor_page_fault 8199

CPU 0 L1D next line prefetcher final stats
CPU 0 L2C next line prefetcher final stats
Channel_0_RQ_row_buffer_hit 1443877
Channel_0_RQ_row_buffer_miss 1132373
Channel_0_WQ_row_buffer_hit 485040
Channel_0_WQ_row_buffer_miss 433119
Channel_0_WQ_full 0
Channel_0_dbus_congested 2169846

avg_congested_cycle 8
