*************************************************
   ChampSim Multicore Out-of-Order Simulator
   Last compiled: Dec 21 2023 17:44:06
*************************************************

trace_0 ./test_trace/462.libquantum-714B.champsimtrace.xz
CPU 0 L2C IP-based stride prefetcher
LLC Next Line Prefetcher
warmup_instructions 100000000
simulation_instructions 100000000
champsim_seed 222

num_cpus 1
cpu_freq 4000
dram_io_freq 2400
page_size 4096
block_size 64
max_read_per_cycle 8
max_fill_per_cycle 1
dram_channels 1
dram_ranks 1
dram_banks 8
dram_rows 65536
dram_columns 128
dram_row_size 8
dram_size 4096
dram_pages 1048576

fetch_width 6
decode_width 6
exec_width 4
lq_width 2
sq_width 2
retire_width 4
scheduler_size 128
branch_mispredict_penalty 20
rob_size 256
lq_size 72
sq_size 56
num_instr_destinations_sparc 4
num_instr_destinations 2
num_instr_sources 4

itlb_set 16
itlb_way 8
itlb_rq_size 16
itlb_wq_size 16
itlb_pq_size 0
itlb_mshr_size 8
itlb_latency 1

dtlb_set 16
dtlb_way 4
dtlb_rq_size 16
dtlb_wq_size 16
dtlb_pq_size 0
dtlb_mshr_size 8
dtlb_latency 1

stlb_set 128
stlb_way 12
stlb_rq_size 32
stlb_wq_size 32
stlb_pq_size 0
stlb_mshr_size 16
stlb_latency 8

l1i_size 32
l1i_set 64
l1i_way 8
l1i_rq_size 64
l1i_wq_size 64
l1i_pq_size 8
l1i_mshr_size 8
l1i_latency 1

l1d_size 32
l1d_set 64
l1d_way 8
l1d_rq_size 64
l1d_wq_size 64
l1d_pq_size 8
l1d_mshr_size 16
l1d_latency 4

l2c_size 512
l2c_set 1024
l2c_way 8
l2c_rq_size 32
l2c_wq_size 32
l2c_pq_size 16
l2c_mshr_size 32
l2c_latency 10

llc_size 2048
llc_set 2048
llc_way 16
llc_rq_size 32
llc_wq_size 32
llc_pq_size 32
llc_mshr_size 64
llc_latency 20

dram_channel_width 8
dram_wq_size 64
dram_rq_size 64
tRP 15
tRCD 15
tCAS 12.5
dram_dbus_turn_around_time 30
dram_write_high_wm 56
dram_write_low_wm 48
min_dram_writes_per_switch 16
dram_mtps 2400
dram_dbus_return_time 13


Heartbeat CPU  0 instructions:    1000000 cycles:     548240 heartbeat IPC: 1.82402 cumulative IPC: 1.82402 (Simulation time: 0 hr 0 min 1 sec) 
Heartbeat CPU  0 instructions:    2000003 cycles:    1096596 heartbeat IPC: 1.82364 cumulative IPC: 1.82383 (Simulation time: 0 hr 0 min 2 sec) 
Heartbeat CPU  0 instructions:    3000002 cycles:    1645110 heartbeat IPC: 1.82311 cumulative IPC: 1.82359 (Simulation time: 0 hr 0 min 3 sec) 
Heartbeat CPU  0 instructions:    4000000 cycles:    2193759 heartbeat IPC: 1.82266 cumulative IPC: 1.82335 (Simulation time: 0 hr 0 min 4 sec) 
Heartbeat CPU  0 instructions:    5000000 cycles:    2742383 heartbeat IPC: 1.82274 cumulative IPC: 1.82323 (Simulation time: 0 hr 0 min 4 sec) 
Heartbeat CPU  0 instructions:    6000000 cycles:    3290846 heartbeat IPC: 1.82328 cumulative IPC: 1.82324 (Simulation time: 0 hr 0 min 5 sec) 
Heartbeat CPU  0 instructions:    7000000 cycles:    3839362 heartbeat IPC: 1.82310 cumulative IPC: 1.82322 (Simulation time: 0 hr 0 min 6 sec) 
Heartbeat CPU  0 instructions:    8000000 cycles:    4387933 heartbeat IPC: 1.82292 cumulative IPC: 1.82318 (Simulation time: 0 hr 0 min 7 sec) 
Heartbeat CPU  0 instructions:    9000002 cycles:    4916764 heartbeat IPC: 1.89097 cumulative IPC: 1.83047 (Simulation time: 0 hr 0 min 8 sec) 
Heartbeat CPU  0 instructions:   10000002 cycles:    5439068 heartbeat IPC: 1.91459 cumulative IPC: 1.83855 (Simulation time: 0 hr 0 min 9 sec) 
Heartbeat CPU  0 instructions:   11000001 cycles:    5961395 heartbeat IPC: 1.91451 cumulative IPC: 1.84521 (Simulation time: 0 hr 0 min 11 sec) 
Heartbeat CPU  0 instructions:   12000000 cycles:    6483699 heartbeat IPC: 1.91459 cumulative IPC: 1.85080 (Simulation time: 0 hr 0 min 12 sec) 
Heartbeat CPU  0 instructions:   13000000 cycles:    7006050 heartbeat IPC: 1.91442 cumulative IPC: 1.85554 (Simulation time: 0 hr 0 min 14 sec) 
Heartbeat CPU  0 instructions:   14000000 cycles:    7528354 heartbeat IPC: 1.91459 cumulative IPC: 1.85964 (Simulation time: 0 hr 0 min 15 sec) 
Heartbeat CPU  0 instructions:   15000003 cycles:    8050682 heartbeat IPC: 1.91451 cumulative IPC: 1.86320 (Simulation time: 0 hr 0 min 16 sec) 
Heartbeat CPU  0 instructions:   16000000 cycles:    8572986 heartbeat IPC: 1.91459 cumulative IPC: 1.86633 (Simulation time: 0 hr 0 min 18 sec) 
Heartbeat CPU  0 instructions:   17000000 cycles:    9095337 heartbeat IPC: 1.91442 cumulative IPC: 1.86909 (Simulation time: 0 hr 0 min 19 sec) 
Heartbeat CPU  0 instructions:   18000000 cycles:    9617641 heartbeat IPC: 1.91459 cumulative IPC: 1.87156 (Simulation time: 0 hr 0 min 20 sec) 
Heartbeat CPU  0 instructions:   19000003 cycles:   10139968 heartbeat IPC: 1.91452 cumulative IPC: 1.87377 (Simulation time: 0 hr 0 min 22 sec) 
Heartbeat CPU  0 instructions:   20000000 cycles:   10662272 heartbeat IPC: 1.91459 cumulative IPC: 1.87577 (Simulation time: 0 hr 0 min 23 sec) 
Heartbeat CPU  0 instructions:   21000000 cycles:   11184623 heartbeat IPC: 1.91442 cumulative IPC: 1.87758 (Simulation time: 0 hr 0 min 24 sec) 
Heartbeat CPU  0 instructions:   22000000 cycles:   11706927 heartbeat IPC: 1.91459 cumulative IPC: 1.87923 (Simulation time: 0 hr 0 min 26 sec) 
Heartbeat CPU  0 instructions:   23000000 cycles:   12220869 heartbeat IPC: 1.94574 cumulative IPC: 1.88203 (Simulation time: 0 hr 0 min 27 sec) 
Heartbeat CPU  0 instructions:   24000000 cycles:   12640280 heartbeat IPC: 2.38430 cumulative IPC: 1.89869 (Simulation time: 0 hr 0 min 28 sec) 
Heartbeat CPU  0 instructions:   25000000 cycles:   13059684 heartbeat IPC: 2.38434 cumulative IPC: 1.91429 (Simulation time: 0 hr 0 min 29 sec) 
Heartbeat CPU  0 instructions:   26000000 cycles:   13479105 heartbeat IPC: 2.38424 cumulative IPC: 1.92891 (Simulation time: 0 hr 0 min 29 sec) 
Heartbeat CPU  0 instructions:   27000000 cycles:   13898539 heartbeat IPC: 2.38417 cumulative IPC: 1.94265 (Simulation time: 0 hr 0 min 30 sec) 
Heartbeat CPU  0 instructions:   28000000 cycles:   14317974 heartbeat IPC: 2.38416 cumulative IPC: 1.95558 (Simulation time: 0 hr 0 min 31 sec) 
Heartbeat CPU  0 instructions:   29000001 cycles:   14737381 heartbeat IPC: 2.38432 cumulative IPC: 1.96779 (Simulation time: 0 hr 0 min 32 sec) 
Heartbeat CPU  0 instructions:   30000003 cycles:   15156784 heartbeat IPC: 2.38435 cumulative IPC: 1.97931 (Simulation time: 0 hr 0 min 32 sec) 
Heartbeat CPU  0 instructions:   31000001 cycles:   15576209 heartbeat IPC: 2.38421 cumulative IPC: 1.99021 (Simulation time: 0 hr 0 min 33 sec) 
Heartbeat CPU  0 instructions:   32000000 cycles:   15995666 heartbeat IPC: 2.38403 cumulative IPC: 2.00054 (Simulation time: 0 hr 0 min 34 sec) 
Heartbeat CPU  0 instructions:   33000003 cycles:   16415066 heartbeat IPC: 2.38437 cumulative IPC: 2.01035 (Simulation time: 0 hr 0 min 35 sec) 
Heartbeat CPU  0 instructions:   34000000 cycles:   16834460 heartbeat IPC: 2.38439 cumulative IPC: 2.01967 (Simulation time: 0 hr 0 min 35 sec) 
Heartbeat CPU  0 instructions:   35000002 cycles:   17253876 heartbeat IPC: 2.38427 cumulative IPC: 2.02853 (Simulation time: 0 hr 0 min 36 sec) 
Heartbeat CPU  0 instructions:   36000000 cycles:   17673317 heartbeat IPC: 2.38412 cumulative IPC: 2.03697 (Simulation time: 0 hr 0 min 37 sec) 
Heartbeat CPU  0 instructions:   37000000 cycles:   18092762 heartbeat IPC: 2.38410 cumulative IPC: 2.04502 (Simulation time: 0 hr 0 min 38 sec) 
Heartbeat CPU  0 instructions:   38000002 cycles:   18512162 heartbeat IPC: 2.38436 cumulative IPC: 2.05270 (Simulation time: 0 hr 0 min 39 sec) 
Heartbeat CPU  0 instructions:   39000000 cycles:   18931573 heartbeat IPC: 2.38429 cumulative IPC: 2.06005 (Simulation time: 0 hr 0 min 39 sec) 
Heartbeat CPU  0 instructions:   40000000 cycles:   19350990 heartbeat IPC: 2.38426 cumulative IPC: 2.06708 (Simulation time: 0 hr 0 min 40 sec) 
Heartbeat CPU  0 instructions:   41000001 cycles:   19770455 heartbeat IPC: 2.38399 cumulative IPC: 2.07380 (Simulation time: 0 hr 0 min 41 sec) 
Heartbeat CPU  0 instructions:   42000003 cycles:   20189862 heartbeat IPC: 2.38432 cumulative IPC: 2.08025 (Simulation time: 0 hr 0 min 42 sec) 
Heartbeat CPU  0 instructions:   43000001 cycles:   20609264 heartbeat IPC: 2.38434 cumulative IPC: 2.08644 (Simulation time: 0 hr 0 min 42 sec) 
Heartbeat CPU  0 instructions:   44000000 cycles:   21028664 heartbeat IPC: 2.38436 cumulative IPC: 2.09238 (Simulation time: 0 hr 0 min 43 sec) 
Heartbeat CPU  0 instructions:   45000001 cycles:   21448098 heartbeat IPC: 2.38417 cumulative IPC: 2.09809 (Simulation time: 0 hr 0 min 44 sec) 
Heartbeat CPU  0 instructions:   46000001 cycles:   21867542 heartbeat IPC: 2.38411 cumulative IPC: 2.10357 (Simulation time: 0 hr 0 min 45 sec) 
Heartbeat CPU  0 instructions:   47000000 cycles:   22407474 heartbeat IPC: 1.85208 cumulative IPC: 2.09751 (Simulation time: 0 hr 0 min 45 sec) 
Heartbeat CPU  0 instructions:   48000000 cycles:   22949723 heartbeat IPC: 1.84417 cumulative IPC: 2.09153 (Simulation time: 0 hr 0 min 46 sec) 
Heartbeat CPU  0 instructions:   49000000 cycles:   23491982 heartbeat IPC: 1.84414 cumulative IPC: 2.08582 (Simulation time: 0 hr 0 min 47 sec) 
Heartbeat CPU  0 instructions:   50000003 cycles:   24034240 heartbeat IPC: 1.84415 cumulative IPC: 2.08037 (Simulation time: 0 hr 0 min 48 sec) 
Heartbeat CPU  0 instructions:   51000002 cycles:   24576486 heartbeat IPC: 1.84418 cumulative IPC: 2.07515 (Simulation time: 0 hr 0 min 49 sec) 
Heartbeat CPU  0 instructions:   52000000 cycles:   25118736 heartbeat IPC: 1.84416 cumulative IPC: 2.07017 (Simulation time: 0 hr 0 min 49 sec) 
Heartbeat CPU  0 instructions:   53000000 cycles:   25660978 heartbeat IPC: 1.84420 cumulative IPC: 2.06539 (Simulation time: 0 hr 0 min 50 sec) 
Heartbeat CPU  0 instructions:   54000003 cycles:   26203237 heartbeat IPC: 1.84414 cumulative IPC: 2.06081 (Simulation time: 0 hr 0 min 51 sec) 
Heartbeat CPU  0 instructions:   55000002 cycles:   26745483 heartbeat IPC: 1.84418 cumulative IPC: 2.05642 (Simulation time: 0 hr 0 min 52 sec) 
Heartbeat CPU  0 instructions:   56000000 cycles:   27287728 heartbeat IPC: 1.84418 cumulative IPC: 2.05220 (Simulation time: 0 hr 0 min 53 sec) 
Heartbeat CPU  0 instructions:   57000000 cycles:   27829967 heartbeat IPC: 1.84421 cumulative IPC: 2.04815 (Simulation time: 0 hr 0 min 53 sec) 
Heartbeat CPU  0 instructions:   58000000 cycles:   28372202 heartbeat IPC: 1.84422 cumulative IPC: 2.04425 (Simulation time: 0 hr 0 min 54 sec) 
Heartbeat CPU  0 instructions:   59000000 cycles:   28914463 heartbeat IPC: 1.84413 cumulative IPC: 2.04050 (Simulation time: 0 hr 0 min 55 sec) 
Heartbeat CPU  0 instructions:   60000000 cycles:   29456708 heartbeat IPC: 1.84418 cumulative IPC: 2.03689 (Simulation time: 0 hr 0 min 56 sec) 
Heartbeat CPU  0 instructions:   61000003 cycles:   29998959 heartbeat IPC: 1.84417 cumulative IPC: 2.03340 (Simulation time: 0 hr 0 min 57 sec) 
Heartbeat CPU  0 instructions:   62000002 cycles:   30541208 heartbeat IPC: 1.84417 cumulative IPC: 2.03004 (Simulation time: 0 hr 0 min 58 sec) 
Heartbeat CPU  0 instructions:   63000001 cycles:   31083451 heartbeat IPC: 1.84419 cumulative IPC: 2.02680 (Simulation time: 0 hr 0 min 58 sec) 
Heartbeat CPU  0 instructions:   64000000 cycles:   31625696 heartbeat IPC: 1.84418 cumulative IPC: 2.02367 (Simulation time: 0 hr 0 min 59 sec) 
Heartbeat CPU  0 instructions:   65000003 cycles:   32167958 heartbeat IPC: 1.84413 cumulative IPC: 2.02064 (Simulation time: 0 hr 1 min 0 sec) 
Heartbeat CPU  0 instructions:   66000002 cycles:   32710207 heartbeat IPC: 1.84417 cumulative IPC: 2.01772 (Simulation time: 0 hr 1 min 1 sec) 
Heartbeat CPU  0 instructions:   67000001 cycles:   33252460 heartbeat IPC: 1.84416 cumulative IPC: 2.01489 (Simulation time: 0 hr 1 min 2 sec) 
Heartbeat CPU  0 instructions:   68000000 cycles:   33794708 heartbeat IPC: 1.84417 cumulative IPC: 2.01215 (Simulation time: 0 hr 1 min 2 sec) 
Heartbeat CPU  0 instructions:   69000000 cycles:   34336963 heartbeat IPC: 1.84415 cumulative IPC: 2.00950 (Simulation time: 0 hr 1 min 3 sec) 
Heartbeat CPU  0 instructions:   70000000 cycles:   34859049 heartbeat IPC: 1.91539 cumulative IPC: 2.00809 (Simulation time: 0 hr 1 min 5 sec) 
Heartbeat CPU  0 instructions:   71000003 cycles:   35379131 heartbeat IPC: 1.92278 cumulative IPC: 2.00683 (Simulation time: 0 hr 1 min 6 sec) 
Heartbeat CPU  0 instructions:   72000000 cycles:   35899197 heartbeat IPC: 1.92283 cumulative IPC: 2.00562 (Simulation time: 0 hr 1 min 7 sec) 
Heartbeat CPU  0 instructions:   73000002 cycles:   36419302 heartbeat IPC: 1.92269 cumulative IPC: 2.00443 (Simulation time: 0 hr 1 min 9 sec) 
Heartbeat CPU  0 instructions:   74000002 cycles:   36939360 heartbeat IPC: 1.92286 cumulative IPC: 2.00328 (Simulation time: 0 hr 1 min 10 sec) 
Heartbeat CPU  0 instructions:   75000001 cycles:   37459442 heartbeat IPC: 1.92277 cumulative IPC: 2.00217 (Simulation time: 0 hr 1 min 11 sec) 
Heartbeat CPU  0 instructions:   76000000 cycles:   37979484 heartbeat IPC: 1.92292 cumulative IPC: 2.00108 (Simulation time: 0 hr 1 min 13 sec) 
Heartbeat CPU  0 instructions:   77000001 cycles:   38499575 heartbeat IPC: 1.92274 cumulative IPC: 2.00002 (Simulation time: 0 hr 1 min 14 sec) 
Heartbeat CPU  0 instructions:   78000001 cycles:   39019635 heartbeat IPC: 1.92286 cumulative IPC: 1.99899 (Simulation time: 0 hr 1 min 15 sec) 
Heartbeat CPU  0 instructions:   79000000 cycles:   39539723 heartbeat IPC: 1.92275 cumulative IPC: 1.99799 (Simulation time: 0 hr 1 min 17 sec) 
Heartbeat CPU  0 instructions:   80000000 cycles:   40059771 heartbeat IPC: 1.92290 cumulative IPC: 1.99702 (Simulation time: 0 hr 1 min 18 sec) 
Heartbeat CPU  0 instructions:   81000000 cycles:   40579882 heartbeat IPC: 1.92267 cumulative IPC: 1.99606 (Simulation time: 0 hr 1 min 20 sec) 
Heartbeat CPU  0 instructions:   82000000 cycles:   41099944 heartbeat IPC: 1.92285 cumulative IPC: 1.99514 (Simulation time: 0 hr 1 min 21 sec) 
Heartbeat CPU  0 instructions:   83000003 cycles:   41620022 heartbeat IPC: 1.92279 cumulative IPC: 1.99423 (Simulation time: 0 hr 1 min 22 sec) 
Heartbeat CPU  0 instructions:   84000000 cycles:   42116636 heartbeat IPC: 2.01363 cumulative IPC: 1.99446 (Simulation time: 0 hr 1 min 23 sec) 
Heartbeat CPU  0 instructions:   85000000 cycles:   42536040 heartbeat IPC: 2.38434 cumulative IPC: 1.99831 (Simulation time: 0 hr 1 min 24 sec) 
Heartbeat CPU  0 instructions:   86000001 cycles:   42955446 heartbeat IPC: 2.38433 cumulative IPC: 2.00207 (Simulation time: 0 hr 1 min 25 sec) 
Heartbeat CPU  0 instructions:   87000003 cycles:   43374860 heartbeat IPC: 2.38428 cumulative IPC: 2.00577 (Simulation time: 0 hr 1 min 26 sec) 
Heartbeat CPU  0 instructions:   88000000 cycles:   43794332 heartbeat IPC: 2.38394 cumulative IPC: 2.00939 (Simulation time: 0 hr 1 min 26 sec) 
Heartbeat CPU  0 instructions:   89000001 cycles:   44213740 heartbeat IPC: 2.38432 cumulative IPC: 2.01295 (Simulation time: 0 hr 1 min 27 sec) 
Heartbeat CPU  0 instructions:   90000001 cycles:   44633141 heartbeat IPC: 2.38435 cumulative IPC: 2.01644 (Simulation time: 0 hr 1 min 28 sec) 
Heartbeat CPU  0 instructions:   91000000 cycles:   45052537 heartbeat IPC: 2.38438 cumulative IPC: 2.01986 (Simulation time: 0 hr 1 min 29 sec) 
Heartbeat CPU  0 instructions:   92000000 cycles:   45471972 heartbeat IPC: 2.38416 cumulative IPC: 2.02322 (Simulation time: 0 hr 1 min 29 sec) 
Heartbeat CPU  0 instructions:   93000003 cycles:   45891424 heartbeat IPC: 2.38407 cumulative IPC: 2.02652 (Simulation time: 0 hr 1 min 30 sec) 
Heartbeat CPU  0 instructions:   94000000 cycles:   46310825 heartbeat IPC: 2.38435 cumulative IPC: 2.02976 (Simulation time: 0 hr 1 min 31 sec) 
Heartbeat CPU  0 instructions:   95000002 cycles:   46730223 heartbeat IPC: 2.38437 cumulative IPC: 2.03295 (Simulation time: 0 hr 1 min 32 sec) 
Heartbeat CPU  0 instructions:   96000000 cycles:   47149642 heartbeat IPC: 2.38425 cumulative IPC: 2.03607 (Simulation time: 0 hr 1 min 33 sec) 
Heartbeat CPU  0 instructions:   97000000 cycles:   47569110 heartbeat IPC: 2.38397 cumulative IPC: 2.03914 (Simulation time: 0 hr 1 min 33 sec) 
Heartbeat CPU  0 instructions:   98000000 cycles:   47988522 heartbeat IPC: 2.38429 cumulative IPC: 2.04216 (Simulation time: 0 hr 1 min 34 sec) 
Heartbeat CPU  0 instructions:   99000003 cycles:   48407928 heartbeat IPC: 2.38433 cumulative IPC: 2.04512 (Simulation time: 0 hr 1 min 35 sec) 
Heartbeat CPU  0 instructions:  100000000 cycles:   48827332 heartbeat IPC: 2.38433 cumulative IPC: 2.04803 (Simulation time: 0 hr 1 min 36 sec) 

Warmup complete CPU  0 instructions:  100000001 cycles:   48827334 (Simulation time: 0 hr 1 min 36 sec) 

Heartbeat CPU  0 instructions:  101000003 cycles:   49838019 heartbeat IPC: 0.98943 cumulative IPC: 0.98943 (Simulation time: 0 hr 1 min 37 sec) 
Heartbeat CPU  0 instructions:  102000003 cycles:   50847188 heartbeat IPC: 0.99091 cumulative IPC: 0.99017 (Simulation time: 0 hr 1 min 38 sec) 
Heartbeat CPU  0 instructions:  103000001 cycles:   51856179 heartbeat IPC: 0.99109 cumulative IPC: 0.99048 (Simulation time: 0 hr 1 min 40 sec) 
Heartbeat CPU  0 instructions:  104000000 cycles:   52865565 heartbeat IPC: 0.99070 cumulative IPC: 0.99053 (Simulation time: 0 hr 1 min 41 sec) 
Heartbeat CPU  0 instructions:  105000000 cycles:   53875175 heartbeat IPC: 0.99048 cumulative IPC: 0.99052 (Simulation time: 0 hr 1 min 42 sec) 
Heartbeat CPU  0 instructions:  106000002 cycles:   54884370 heartbeat IPC: 0.99089 cumulative IPC: 0.99058 (Simulation time: 0 hr 1 min 44 sec) 
Heartbeat CPU  0 instructions:  107000000 cycles:   55896554 heartbeat IPC: 0.98796 cumulative IPC: 0.99021 (Simulation time: 0 hr 1 min 45 sec) 
Heartbeat CPU  0 instructions:  108000000 cycles:   56919129 heartbeat IPC: 0.97792 cumulative IPC: 0.98866 (Simulation time: 0 hr 1 min 46 sec) 
Heartbeat CPU  0 instructions:  109000000 cycles:   58001234 heartbeat IPC: 0.92412 cumulative IPC: 0.98104 (Simulation time: 0 hr 1 min 48 sec) 
Heartbeat CPU  0 instructions:  110000001 cycles:   59105954 heartbeat IPC: 0.90521 cumulative IPC: 0.97289 (Simulation time: 0 hr 1 min 49 sec) 
Heartbeat CPU  0 instructions:  111000001 cycles:   60208282 heartbeat IPC: 0.90717 cumulative IPC: 0.96653 (Simulation time: 0 hr 1 min 50 sec) 
Heartbeat CPU  0 instructions:  112000000 cycles:   61315250 heartbeat IPC: 0.90337 cumulative IPC: 0.96093 (Simulation time: 0 hr 1 min 52 sec) 
Heartbeat CPU  0 instructions:  113000002 cycles:   62422123 heartbeat IPC: 0.90345 cumulative IPC: 0.95625 (Simulation time: 0 hr 1 min 53 sec) 
Heartbeat CPU  0 instructions:  114000002 cycles:   63526290 heartbeat IPC: 0.90566 cumulative IPC: 0.95245 (Simulation time: 0 hr 1 min 54 sec) 
Heartbeat CPU  0 instructions:  115000003 cycles:   64631075 heartbeat IPC: 0.90515 cumulative IPC: 0.94914 (Simulation time: 0 hr 1 min 56 sec) 
Heartbeat CPU  0 instructions:  116000000 cycles:   65735370 heartbeat IPC: 0.90555 cumulative IPC: 0.94630 (Simulation time: 0 hr 1 min 57 sec) 
Heartbeat CPU  0 instructions:  117000000 cycles:   66840135 heartbeat IPC: 0.90517 cumulative IPC: 0.94377 (Simulation time: 0 hr 1 min 59 sec) 
Heartbeat CPU  0 instructions:  118000000 cycles:   67950102 heartbeat IPC: 0.90093 cumulative IPC: 0.94129 (Simulation time: 0 hr 2 min 0 sec) 
Heartbeat CPU  0 instructions:  119000001 cycles:   69057080 heartbeat IPC: 0.90336 cumulative IPC: 0.93921 (Simulation time: 0 hr 2 min 1 sec) 
Heartbeat CPU  0 instructions:  120000000 cycles:   70157743 heartbeat IPC: 0.90854 cumulative IPC: 0.93763 (Simulation time: 0 hr 2 min 3 sec) 
Heartbeat CPU  0 instructions:  121000000 cycles:   71259896 heartbeat IPC: 0.90732 cumulative IPC: 0.93614 (Simulation time: 0 hr 2 min 4 sec) 
Heartbeat CPU  0 instructions:  122000002 cycles:   72363661 heartbeat IPC: 0.90599 cumulative IPC: 0.93473 (Simulation time: 0 hr 2 min 5 sec) 
Heartbeat CPU  0 instructions:  123000002 cycles:   73465880 heartbeat IPC: 0.90726 cumulative IPC: 0.93350 (Simulation time: 0 hr 2 min 7 sec) 
Heartbeat CPU  0 instructions:  124000000 cycles:   74570682 heartbeat IPC: 0.90514 cumulative IPC: 0.93228 (Simulation time: 0 hr 2 min 8 sec) 
Heartbeat CPU  0 instructions:  125000003 cycles:   75674953 heartbeat IPC: 0.90558 cumulative IPC: 0.93118 (Simulation time: 0 hr 2 min 9 sec) 
Heartbeat CPU  0 instructions:  126000000 cycles:   76779555 heartbeat IPC: 0.90530 cumulative IPC: 0.93016 (Simulation time: 0 hr 2 min 11 sec) 
Heartbeat CPU  0 instructions:  127000000 cycles:   77880725 heartbeat IPC: 0.90812 cumulative IPC: 0.92932 (Simulation time: 0 hr 2 min 12 sec) 
Heartbeat CPU  0 instructions:  128000000 cycles:   78988812 heartbeat IPC: 0.90246 cumulative IPC: 0.92834 (Simulation time: 0 hr 2 min 13 sec) 
Heartbeat CPU  0 instructions:  129000001 cycles:   80092903 heartbeat IPC: 0.90572 cumulative IPC: 0.92754 (Simulation time: 0 hr 2 min 15 sec) 
Heartbeat CPU  0 instructions:  130000001 cycles:   81193994 heartbeat IPC: 0.90819 cumulative IPC: 0.92688 (Simulation time: 0 hr 2 min 16 sec) 
Heartbeat CPU  0 instructions:  131000000 cycles:   82737863 heartbeat IPC: 0.64772 cumulative IPC: 0.91417 (Simulation time: 0 hr 2 min 18 sec) 
Heartbeat CPU  0 instructions:  132000000 cycles:   84943967 heartbeat IPC: 0.45329 cumulative IPC: 0.88602 (Simulation time: 0 hr 2 min 20 sec) 
Heartbeat CPU  0 instructions:  133000000 cycles:   87148829 heartbeat IPC: 0.45354 cumulative IPC: 0.86114 (Simulation time: 0 hr 2 min 22 sec) 
Heartbeat CPU  0 instructions:  134000000 cycles:   89363394 heartbeat IPC: 0.45156 cumulative IPC: 0.83876 (Simulation time: 0 hr 2 min 25 sec) 
Heartbeat CPU  0 instructions:  135000000 cycles:   91576968 heartbeat IPC: 0.45176 cumulative IPC: 0.81872 (Simulation time: 0 hr 2 min 27 sec) 
Heartbeat CPU  0 instructions:  136000000 cycles:   93787101 heartbeat IPC: 0.45246 cumulative IPC: 0.80072 (Simulation time: 0 hr 2 min 29 sec) 
Heartbeat CPU  0 instructions:  137000000 cycles:   95998055 heartbeat IPC: 0.45229 cumulative IPC: 0.78438 (Simulation time: 0 hr 2 min 31 sec) 
Heartbeat CPU  0 instructions:  138000000 cycles:   98212285 heartbeat IPC: 0.45162 cumulative IPC: 0.76947 (Simulation time: 0 hr 2 min 33 sec) 
Heartbeat CPU  0 instructions:  139000000 cycles:  100422846 heartbeat IPC: 0.45237 cumulative IPC: 0.75588 (Simulation time: 0 hr 2 min 36 sec) 
Heartbeat CPU  0 instructions:  140000000 cycles:  102633770 heartbeat IPC: 0.45230 cumulative IPC: 0.74341 (Simulation time: 0 hr 2 min 38 sec) 
Heartbeat CPU  0 instructions:  141000000 cycles:  104844832 heartbeat IPC: 0.45227 cumulative IPC: 0.73191 (Simulation time: 0 hr 2 min 40 sec) 
Heartbeat CPU  0 instructions:  142000000 cycles:  107056926 heartbeat IPC: 0.45206 cumulative IPC: 0.72128 (Simulation time: 0 hr 2 min 42 sec) 
Heartbeat CPU  0 instructions:  143000000 cycles:  109266959 heartbeat IPC: 0.45248 cumulative IPC: 0.71145 (Simulation time: 0 hr 2 min 44 sec) 
Heartbeat CPU  0 instructions:  144000000 cycles:  111478250 heartbeat IPC: 0.45222 cumulative IPC: 0.70230 (Simulation time: 0 hr 2 min 47 sec) 
Heartbeat CPU  0 instructions:  145000002 cycles:  113506952 heartbeat IPC: 0.49293 cumulative IPC: 0.69574 (Simulation time: 0 hr 2 min 49 sec) 
Heartbeat CPU  0 instructions:  146000000 cycles:  115124275 heartbeat IPC: 0.61830 cumulative IPC: 0.69385 (Simulation time: 0 hr 2 min 50 sec) 
Heartbeat CPU  0 instructions:  147000000 cycles:  116221395 heartbeat IPC: 0.91148 cumulative IPC: 0.69739 (Simulation time: 0 hr 2 min 52 sec) 
Heartbeat CPU  0 instructions:  148000000 cycles:  117231798 heartbeat IPC: 0.98970 cumulative IPC: 0.70171 (Simulation time: 0 hr 2 min 53 sec) 
Heartbeat CPU  0 instructions:  149000000 cycles:  118242358 heartbeat IPC: 0.98955 cumulative IPC: 0.70590 (Simulation time: 0 hr 2 min 54 sec) 
Heartbeat CPU  0 instructions:  150000001 cycles:  119253695 heartbeat IPC: 0.98879 cumulative IPC: 0.70996 (Simulation time: 0 hr 2 min 56 sec) 
Heartbeat CPU  0 instructions:  151000000 cycles:  120264865 heartbeat IPC: 0.98895 cumulative IPC: 0.71391 (Simulation time: 0 hr 2 min 57 sec) 
Heartbeat CPU  0 instructions:  152000000 cycles:  121275724 heartbeat IPC: 0.98926 cumulative IPC: 0.71775 (Simulation time: 0 hr 2 min 58 sec) 
Heartbeat CPU  0 instructions:  153000001 cycles:  122286476 heartbeat IPC: 0.98936 cumulative IPC: 0.72149 (Simulation time: 0 hr 3 min 0 sec) 
Heartbeat CPU  0 instructions:  154000003 cycles:  123297710 heartbeat IPC: 0.98889 cumulative IPC: 0.72512 (Simulation time: 0 hr 3 min 1 sec) 
Heartbeat CPU  0 instructions:  155000001 cycles:  124310657 heartbeat IPC: 0.98722 cumulative IPC: 0.72864 (Simulation time: 0 hr 3 min 3 sec) 
Heartbeat CPU  0 instructions:  156000000 cycles:  125322777 heartbeat IPC: 0.98802 cumulative IPC: 0.73207 (Simulation time: 0 hr 3 min 4 sec) 
Heartbeat CPU  0 instructions:  157000002 cycles:  126334984 heartbeat IPC: 0.98794 cumulative IPC: 0.73541 (Simulation time: 0 hr 3 min 5 sec) 
Heartbeat CPU  0 instructions:  158000000 cycles:  127346000 heartbeat IPC: 0.98910 cumulative IPC: 0.73868 (Simulation time: 0 hr 3 min 7 sec) 
Heartbeat CPU  0 instructions:  159000002 cycles:  128356679 heartbeat IPC: 0.98944 cumulative IPC: 0.74186 (Simulation time: 0 hr 3 min 8 sec) 
Heartbeat CPU  0 instructions:  160000000 cycles:  129368212 heartbeat IPC: 0.98860 cumulative IPC: 0.74496 (Simulation time: 0 hr 3 min 9 sec) 
Heartbeat CPU  0 instructions:  161000000 cycles:  130379629 heartbeat IPC: 0.98871 cumulative IPC: 0.74799 (Simulation time: 0 hr 3 min 11 sec) 
Heartbeat CPU  0 instructions:  162000002 cycles:  131390794 heartbeat IPC: 0.98896 cumulative IPC: 0.75094 (Simulation time: 0 hr 3 min 12 sec) 
Heartbeat CPU  0 instructions:  163000000 cycles:  132401427 heartbeat IPC: 0.98948 cumulative IPC: 0.75382 (Simulation time: 0 hr 3 min 13 sec) 
Heartbeat CPU  0 instructions:  164000000 cycles:  133412145 heartbeat IPC: 0.98940 cumulative IPC: 0.75664 (Simulation time: 0 hr 3 min 15 sec) 
Heartbeat CPU  0 instructions:  165000001 cycles:  134423367 heartbeat IPC: 0.98890 cumulative IPC: 0.75938 (Simulation time: 0 hr 3 min 16 sec) 
Heartbeat CPU  0 instructions:  166000003 cycles:  135434735 heartbeat IPC: 0.98876 cumulative IPC: 0.76206 (Simulation time: 0 hr 3 min 17 sec) 
Heartbeat CPU  0 instructions:  167000001 cycles:  136445048 heartbeat IPC: 0.98979 cumulative IPC: 0.76469 (Simulation time: 0 hr 3 min 19 sec) 
Heartbeat CPU  0 instructions:  168000000 cycles:  137465069 heartbeat IPC: 0.98037 cumulative IPC: 0.76717 (Simulation time: 0 hr 3 min 20 sec) 
Heartbeat CPU  0 instructions:  169000000 cycles:  138501228 heartbeat IPC: 0.96510 cumulative IPC: 0.76945 (Simulation time: 0 hr 3 min 22 sec) 
Heartbeat CPU  0 instructions:  170000003 cycles:  139594003 heartbeat IPC: 0.91510 cumulative IPC: 0.77121 (Simulation time: 0 hr 3 min 23 sec) 
Heartbeat CPU  0 instructions:  171000001 cycles:  140671763 heartbeat IPC: 0.92785 cumulative IPC: 0.77305 (Simulation time: 0 hr 3 min 24 sec) 
Heartbeat CPU  0 instructions:  172000000 cycles:  141745062 heartbeat IPC: 0.93171 cumulative IPC: 0.77488 (Simulation time: 0 hr 3 min 26 sec) 
Heartbeat CPU  0 instructions:  173000001 cycles:  142822731 heartbeat IPC: 0.92793 cumulative IPC: 0.77663 (Simulation time: 0 hr 3 min 27 sec) 
Heartbeat CPU  0 instructions:  174000000 cycles:  143918372 heartbeat IPC: 0.91271 cumulative IPC: 0.77820 (Simulation time: 0 hr 3 min 29 sec) 
Heartbeat CPU  0 instructions:  175000002 cycles:  144993907 heartbeat IPC: 0.92977 cumulative IPC: 0.77990 (Simulation time: 0 hr 3 min 30 sec) 
Heartbeat CPU  0 instructions:  176000000 cycles:  146071248 heartbeat IPC: 0.92821 cumulative IPC: 0.78154 (Simulation time: 0 hr 3 min 31 sec) 
Heartbeat CPU  0 instructions:  177000002 cycles:  147147481 heartbeat IPC: 0.92917 cumulative IPC: 0.78316 (Simulation time: 0 hr 3 min 33 sec) 
Heartbeat CPU  0 instructions:  178000000 cycles:  148233212 heartbeat IPC: 0.92104 cumulative IPC: 0.78466 (Simulation time: 0 hr 3 min 34 sec) 
Heartbeat CPU  0 instructions:  179000003 cycles:  149327399 heartbeat IPC: 0.91392 cumulative IPC: 0.78607 (Simulation time: 0 hr 3 min 36 sec) 
Heartbeat CPU  0 instructions:  180000000 cycles:  150434538 heartbeat IPC: 0.90323 cumulative IPC: 0.78735 (Simulation time: 0 hr 3 min 37 sec) 
Heartbeat CPU  0 instructions:  181000000 cycles:  151528125 heartbeat IPC: 0.91442 cumulative IPC: 0.78870 (Simulation time: 0 hr 3 min 39 sec) 
Heartbeat CPU  0 instructions:  182000001 cycles:  152598159 heartbeat IPC: 0.93455 cumulative IPC: 0.79020 (Simulation time: 0 hr 3 min 40 sec) 
Heartbeat CPU  0 instructions:  183000000 cycles:  153673721 heartbeat IPC: 0.92975 cumulative IPC: 0.79163 (Simulation time: 0 hr 3 min 41 sec) 
Heartbeat CPU  0 instructions:  184000000 cycles:  154745327 heartbeat IPC: 0.93318 cumulative IPC: 0.79307 (Simulation time: 0 hr 3 min 43 sec) 
Heartbeat CPU  0 instructions:  185000001 cycles:  155820133 heartbeat IPC: 0.93040 cumulative IPC: 0.79445 (Simulation time: 0 hr 3 min 44 sec) 
Heartbeat CPU  0 instructions:  186000002 cycles:  156898501 heartbeat IPC: 0.92733 cumulative IPC: 0.79577 (Simulation time: 0 hr 3 min 45 sec) 
Heartbeat CPU  0 instructions:  187000000 cycles:  157971115 heartbeat IPC: 0.93230 cumulative IPC: 0.79711 (Simulation time: 0 hr 3 min 47 sec) 
Heartbeat CPU  0 instructions:  188000000 cycles:  159045874 heartbeat IPC: 0.93044 cumulative IPC: 0.79841 (Simulation time: 0 hr 3 min 48 sec) 
Heartbeat CPU  0 instructions:  189000001 cycles:  160123730 heartbeat IPC: 0.92777 cumulative IPC: 0.79967 (Simulation time: 0 hr 3 min 50 sec) 
Heartbeat CPU  0 instructions:  190000000 cycles:  161199800 heartbeat IPC: 0.92931 cumulative IPC: 0.80091 (Simulation time: 0 hr 3 min 51 sec) 
Heartbeat CPU  0 instructions:  191000000 cycles:  162291528 heartbeat IPC: 0.91598 cumulative IPC: 0.80202 (Simulation time: 0 hr 3 min 53 sec) 
Heartbeat CPU  0 instructions:  192000000 cycles:  163824898 heartbeat IPC: 0.65216 cumulative IPC: 0.80002 (Simulation time: 0 hr 3 min 54 sec) 
Heartbeat CPU  0 instructions:  193000000 cycles:  166014260 heartbeat IPC: 0.45675 cumulative IPC: 0.79360 (Simulation time: 0 hr 3 min 56 sec) 
Heartbeat CPU  0 instructions:  194000000 cycles:  168203221 heartbeat IPC: 0.45684 cumulative IPC: 0.78743 (Simulation time: 0 hr 3 min 59 sec) 
Heartbeat CPU  0 instructions:  195000000 cycles:  170391888 heartbeat IPC: 0.45690 cumulative IPC: 0.78148 (Simulation time: 0 hr 4 min 1 sec) 
Heartbeat CPU  0 instructions:  196000000 cycles:  172581143 heartbeat IPC: 0.45678 cumulative IPC: 0.77573 (Simulation time: 0 hr 4 min 3 sec) 
Heartbeat CPU  0 instructions:  197000000 cycles:  174770659 heartbeat IPC: 0.45672 cumulative IPC: 0.77019 (Simulation time: 0 hr 4 min 5 sec) 
Heartbeat CPU  0 instructions:  198000000 cycles:  176959344 heartbeat IPC: 0.45690 cumulative IPC: 0.76484 (Simulation time: 0 hr 4 min 7 sec) 
Heartbeat CPU  0 instructions:  199000000 cycles:  179147467 heartbeat IPC: 0.45701 cumulative IPC: 0.75967 (Simulation time: 0 hr 4 min 9 sec) 
Heartbeat CPU  0 instructions:  200000000 cycles:  181337162 heartbeat IPC: 0.45668 cumulative IPC: 0.75466 (Simulation time: 0 hr 4 min 12 sec) 
Finished CPU 0 instructions: 100000000 cycles: 132509841 cumulative IPC: 0.75466 (Simulation time: 0 hr 4 min 12 sec) 

ChampSim completed all CPUs

[ROI Statistics]
Core_0_instructions 100000000
Core_0_cycles 132509841
Core_0_IPC 0.75466

Core_0_branch_prediction_accuracy 99.58952
Core_0_branch_MPKI 0.70683
Core_0_average_ROB_occupancy_at_mispredict 218.78486

Core_0_L1D_total_access 13404442
Core_0_L1D_total_hit 10828219
Core_0_L1D_total_miss 2576223
Core_0_L1D_loads 9911467
Core_0_L1D_load_hit 7335264
Core_0_L1D_load_miss 2576203
Core_0_L1D_RFOs 3492975
Core_0_L1D_RFO_hit 3492955
Core_0_L1D_RFO_miss 20
Core_0_L1D_prefetches 0
Core_0_L1D_prefetch_hit 0
Core_0_L1D_prefetch_miss 0
Core_0_L1D_writebacks 0
Core_0_L1D_writeback_hit 0
Core_0_L1D_writeback_miss 0
Core_0_L1D_prefetch_requested 0
Core_0_L1D_prefetch_issued 0
Core_0_L1D_prefetch_useful 0
Core_0_L1D_prefetch_useless 0
Core_0_L1D_prefetch_late 0
Core_0_L1D_average_miss_latency 100.94245

Core_0_L1I_total_access 32376316
Core_0_L1I_total_hit 32376315
Core_0_L1I_total_miss 1
Core_0_L1I_loads 32376316
Core_0_L1I_load_hit 32376315
Core_0_L1I_load_miss 1
Core_0_L1I_RFOs 0
Core_0_L1I_RFO_hit 0
Core_0_L1I_RFO_miss 0
Core_0_L1I_prefetches 0
Core_0_L1I_prefetch_hit 0
Core_0_L1I_prefetch_miss 0
Core_0_L1I_writebacks 0
Core_0_L1I_writeback_hit 0
Core_0_L1I_writeback_miss 0
Core_0_L1I_prefetch_requested 0
Core_0_L1I_prefetch_issued 0
Core_0_L1I_prefetch_useful 0
Core_0_L1I_prefetch_useless 0
Core_0_L1I_prefetch_late 0
Core_0_L1I_average_miss_latency 262.00000

Core_0_L2C_total_access 5650085
Core_0_L2C_total_hit 3073849
Core_0_L2C_total_miss 2576236
Core_0_L2C_loads 2576204
Core_0_L2C_load_hit 1186118
Core_0_L2C_load_miss 1390086
Core_0_L2C_RFOs 20
Core_0_L2C_RFO_hit 0
Core_0_L2C_RFO_miss 20
Core_0_L2C_prefetches 2123716
Core_0_L2C_prefetch_hit 937586
Core_0_L2C_prefetch_miss 1186130
Core_0_L2C_writebacks 950145
Core_0_L2C_writeback_hit 950145
Core_0_L2C_writeback_miss 0
Core_0_L2C_prefetch_requested 15190374
Core_0_L2C_prefetch_issued 15190374
Core_0_L2C_prefetch_useful 3796359
Core_0_L2C_prefetch_useless 30
Core_0_L2C_prefetch_late 1320391
Core_0_L2C_average_miss_latency 152.57133

Core_0_LLC_total_access 3704326
Core_0_LLC_total_hit 1128075
Core_0_LLC_total_miss 2576251
Core_0_LLC_loads 69697
Core_0_LLC_load_hit 223
Core_0_LLC_load_miss 69474
Core_0_LLC_RFOs 20
Core_0_LLC_RFO_hit 0
Core_0_LLC_RFO_miss 20
Core_0_LLC_prefetches 2691906
Core_0_LLC_prefetch_hit 185149
Core_0_LLC_prefetch_miss 2506757
Core_0_LLC_writebacks 942703
Core_0_LLC_writeback_hit 942703
Core_0_LLC_writeback_miss 0
Core_0_LLC_prefetch_requested 4532688
Core_0_LLC_prefetch_issued 4455757
Core_0_LLC_prefetch_useful 1287
Core_0_LLC_prefetch_useless 5085598
Core_0_LLC_prefetch_late 220
Core_0_LLC_average_miss_latency 177.53154

Core_0_major_page_fault 0
Core_0_minor_page_fault 8199

CPU 0 L2C PC-based stride prefetcher final stats
LLC Next Line Prefetcher Final Stats: none
Channel_0_RQ_row_buffer_hit 1548609
Channel_0_RQ_row_buffer_miss 1027642
Channel_0_WQ_row_buffer_hit 229682
Channel_0_WQ_row_buffer_miss 689171
Channel_0_WQ_full 0
Channel_0_dbus_congested 2020141

avg_congested_cycle 10
