*************************************************
   ChampSim Multicore Out-of-Order Simulator
   Last compiled: Dec 21 2023 17:52:53
*************************************************

trace_0 ./test_trace/462.libquantum-714B.champsimtrace.xz
CPU 0 L2C IP-based stride prefetcher
Initialize SRRIP state
LLC Next Line Prefetcher
warmup_instructions 100000000
simulation_instructions 100000000
champsim_seed 222

num_cpus 1
cpu_freq 4000
dram_io_freq 2400
page_size 4096
block_size 64
max_read_per_cycle 8
max_fill_per_cycle 1
dram_channels 1
dram_ranks 1
dram_banks 8
dram_rows 65536
dram_columns 128
dram_row_size 8
dram_size 4096
dram_pages 1048576

fetch_width 6
decode_width 6
exec_width 4
lq_width 2
sq_width 2
retire_width 4
scheduler_size 128
branch_mispredict_penalty 20
rob_size 256
lq_size 72
sq_size 56
num_instr_destinations_sparc 4
num_instr_destinations 2
num_instr_sources 4

itlb_set 16
itlb_way 8
itlb_rq_size 16
itlb_wq_size 16
itlb_pq_size 0
itlb_mshr_size 8
itlb_latency 1

dtlb_set 16
dtlb_way 4
dtlb_rq_size 16
dtlb_wq_size 16
dtlb_pq_size 0
dtlb_mshr_size 8
dtlb_latency 1

stlb_set 128
stlb_way 12
stlb_rq_size 32
stlb_wq_size 32
stlb_pq_size 0
stlb_mshr_size 16
stlb_latency 8

l1i_size 32
l1i_set 64
l1i_way 8
l1i_rq_size 64
l1i_wq_size 64
l1i_pq_size 8
l1i_mshr_size 8
l1i_latency 1

l1d_size 32
l1d_set 64
l1d_way 8
l1d_rq_size 64
l1d_wq_size 64
l1d_pq_size 8
l1d_mshr_size 16
l1d_latency 4

l2c_size 512
l2c_set 1024
l2c_way 8
l2c_rq_size 32
l2c_wq_size 32
l2c_pq_size 16
l2c_mshr_size 32
l2c_latency 10

llc_size 2048
llc_set 2048
llc_way 16
llc_rq_size 32
llc_wq_size 32
llc_pq_size 32
llc_mshr_size 64
llc_latency 20

dram_channel_width 8
dram_wq_size 64
dram_rq_size 64
tRP 15
tRCD 15
tCAS 12.5
dram_dbus_turn_around_time 30
dram_write_high_wm 56
dram_write_low_wm 48
min_dram_writes_per_switch 16
dram_mtps 2400
dram_dbus_return_time 13


Heartbeat CPU  0 instructions:    1000000 cycles:     548240 heartbeat IPC: 1.82402 cumulative IPC: 1.82402 (Simulation time: 0 hr 0 min 1 sec) 
Heartbeat CPU  0 instructions:    2000003 cycles:    1096596 heartbeat IPC: 1.82364 cumulative IPC: 1.82383 (Simulation time: 0 hr 0 min 2 sec) 
Heartbeat CPU  0 instructions:    3000002 cycles:    1645110 heartbeat IPC: 1.82311 cumulative IPC: 1.82359 (Simulation time: 0 hr 0 min 3 sec) 
Heartbeat CPU  0 instructions:    4000000 cycles:    2193759 heartbeat IPC: 1.82266 cumulative IPC: 1.82335 (Simulation time: 0 hr 0 min 4 sec) 
Heartbeat CPU  0 instructions:    5000000 cycles:    2742383 heartbeat IPC: 1.82274 cumulative IPC: 1.82323 (Simulation time: 0 hr 0 min 4 sec) 
Heartbeat CPU  0 instructions:    6000000 cycles:    3290846 heartbeat IPC: 1.82328 cumulative IPC: 1.82324 (Simulation time: 0 hr 0 min 5 sec) 
Heartbeat CPU  0 instructions:    7000000 cycles:    3839362 heartbeat IPC: 1.82310 cumulative IPC: 1.82322 (Simulation time: 0 hr 0 min 6 sec) 
Heartbeat CPU  0 instructions:    8000000 cycles:    4387933 heartbeat IPC: 1.82292 cumulative IPC: 1.82318 (Simulation time: 0 hr 0 min 7 sec) 
Heartbeat CPU  0 instructions:    9000002 cycles:    4916764 heartbeat IPC: 1.89097 cumulative IPC: 1.83047 (Simulation time: 0 hr 0 min 8 sec) 
Heartbeat CPU  0 instructions:   10000002 cycles:    5439068 heartbeat IPC: 1.91459 cumulative IPC: 1.83855 (Simulation time: 0 hr 0 min 9 sec) 
Heartbeat CPU  0 instructions:   11000001 cycles:    5961395 heartbeat IPC: 1.91451 cumulative IPC: 1.84521 (Simulation time: 0 hr 0 min 11 sec) 
Heartbeat CPU  0 instructions:   12000000 cycles:    6483699 heartbeat IPC: 1.91459 cumulative IPC: 1.85080 (Simulation time: 0 hr 0 min 12 sec) 
Heartbeat CPU  0 instructions:   13000000 cycles:    7006050 heartbeat IPC: 1.91442 cumulative IPC: 1.85554 (Simulation time: 0 hr 0 min 14 sec) 
Heartbeat CPU  0 instructions:   14000000 cycles:    7528354 heartbeat IPC: 1.91459 cumulative IPC: 1.85964 (Simulation time: 0 hr 0 min 15 sec) 
Heartbeat CPU  0 instructions:   15000003 cycles:    8050682 heartbeat IPC: 1.91451 cumulative IPC: 1.86320 (Simulation time: 0 hr 0 min 16 sec) 
Heartbeat CPU  0 instructions:   16000000 cycles:    8572986 heartbeat IPC: 1.91459 cumulative IPC: 1.86633 (Simulation time: 0 hr 0 min 18 sec) 
Heartbeat CPU  0 instructions:   17000000 cycles:    9095337 heartbeat IPC: 1.91442 cumulative IPC: 1.86909 (Simulation time: 0 hr 0 min 19 sec) 
Heartbeat CPU  0 instructions:   18000000 cycles:    9617641 heartbeat IPC: 1.91459 cumulative IPC: 1.87156 (Simulation time: 0 hr 0 min 20 sec) 
Heartbeat CPU  0 instructions:   19000003 cycles:   10139968 heartbeat IPC: 1.91452 cumulative IPC: 1.87377 (Simulation time: 0 hr 0 min 22 sec) 
Heartbeat CPU  0 instructions:   20000000 cycles:   10662272 heartbeat IPC: 1.91459 cumulative IPC: 1.87577 (Simulation time: 0 hr 0 min 23 sec) 
Heartbeat CPU  0 instructions:   21000000 cycles:   11184623 heartbeat IPC: 1.91442 cumulative IPC: 1.87758 (Simulation time: 0 hr 0 min 24 sec) 
Heartbeat CPU  0 instructions:   22000000 cycles:   11706927 heartbeat IPC: 1.91459 cumulative IPC: 1.87923 (Simulation time: 0 hr 0 min 26 sec) 
Heartbeat CPU  0 instructions:   23000000 cycles:   12220869 heartbeat IPC: 1.94574 cumulative IPC: 1.88203 (Simulation time: 0 hr 0 min 27 sec) 
Heartbeat CPU  0 instructions:   24000000 cycles:   12640280 heartbeat IPC: 2.38430 cumulative IPC: 1.89869 (Simulation time: 0 hr 0 min 28 sec) 
Heartbeat CPU  0 instructions:   25000000 cycles:   13059684 heartbeat IPC: 2.38434 cumulative IPC: 1.91429 (Simulation time: 0 hr 0 min 29 sec) 
Heartbeat CPU  0 instructions:   26000000 cycles:   13479105 heartbeat IPC: 2.38424 cumulative IPC: 1.92891 (Simulation time: 0 hr 0 min 29 sec) 
Heartbeat CPU  0 instructions:   27000000 cycles:   13898539 heartbeat IPC: 2.38417 cumulative IPC: 1.94265 (Simulation time: 0 hr 0 min 30 sec) 
Heartbeat CPU  0 instructions:   28000000 cycles:   14317974 heartbeat IPC: 2.38416 cumulative IPC: 1.95558 (Simulation time: 0 hr 0 min 31 sec) 
Heartbeat CPU  0 instructions:   29000001 cycles:   14737381 heartbeat IPC: 2.38432 cumulative IPC: 1.96779 (Simulation time: 0 hr 0 min 32 sec) 
Heartbeat CPU  0 instructions:   30000003 cycles:   15156784 heartbeat IPC: 2.38435 cumulative IPC: 1.97931 (Simulation time: 0 hr 0 min 32 sec) 
Heartbeat CPU  0 instructions:   31000001 cycles:   15576209 heartbeat IPC: 2.38421 cumulative IPC: 1.99021 (Simulation time: 0 hr 0 min 33 sec) 
Heartbeat CPU  0 instructions:   32000000 cycles:   15995666 heartbeat IPC: 2.38403 cumulative IPC: 2.00054 (Simulation time: 0 hr 0 min 34 sec) 
Heartbeat CPU  0 instructions:   33000003 cycles:   16415066 heartbeat IPC: 2.38437 cumulative IPC: 2.01035 (Simulation time: 0 hr 0 min 35 sec) 
Heartbeat CPU  0 instructions:   34000000 cycles:   16834460 heartbeat IPC: 2.38439 cumulative IPC: 2.01967 (Simulation time: 0 hr 0 min 36 sec) 
Heartbeat CPU  0 instructions:   35000002 cycles:   17253876 heartbeat IPC: 2.38427 cumulative IPC: 2.02853 (Simulation time: 0 hr 0 min 36 sec) 
Heartbeat CPU  0 instructions:   36000000 cycles:   17673317 heartbeat IPC: 2.38412 cumulative IPC: 2.03697 (Simulation time: 0 hr 0 min 37 sec) 
Heartbeat CPU  0 instructions:   37000000 cycles:   18092762 heartbeat IPC: 2.38410 cumulative IPC: 2.04502 (Simulation time: 0 hr 0 min 38 sec) 
Heartbeat CPU  0 instructions:   38000002 cycles:   18512162 heartbeat IPC: 2.38436 cumulative IPC: 2.05270 (Simulation time: 0 hr 0 min 39 sec) 
Heartbeat CPU  0 instructions:   39000000 cycles:   18931573 heartbeat IPC: 2.38429 cumulative IPC: 2.06005 (Simulation time: 0 hr 0 min 39 sec) 
Heartbeat CPU  0 instructions:   40000000 cycles:   19350990 heartbeat IPC: 2.38426 cumulative IPC: 2.06708 (Simulation time: 0 hr 0 min 40 sec) 
Heartbeat CPU  0 instructions:   41000001 cycles:   19770455 heartbeat IPC: 2.38399 cumulative IPC: 2.07380 (Simulation time: 0 hr 0 min 41 sec) 
Heartbeat CPU  0 instructions:   42000003 cycles:   20189862 heartbeat IPC: 2.38432 cumulative IPC: 2.08025 (Simulation time: 0 hr 0 min 42 sec) 
Heartbeat CPU  0 instructions:   43000001 cycles:   20609264 heartbeat IPC: 2.38434 cumulative IPC: 2.08644 (Simulation time: 0 hr 0 min 42 sec) 
Heartbeat CPU  0 instructions:   44000000 cycles:   21028664 heartbeat IPC: 2.38436 cumulative IPC: 2.09238 (Simulation time: 0 hr 0 min 43 sec) 
Heartbeat CPU  0 instructions:   45000001 cycles:   21448098 heartbeat IPC: 2.38417 cumulative IPC: 2.09809 (Simulation time: 0 hr 0 min 44 sec) 
Heartbeat CPU  0 instructions:   46000001 cycles:   21867542 heartbeat IPC: 2.38411 cumulative IPC: 2.10357 (Simulation time: 0 hr 0 min 45 sec) 
Heartbeat CPU  0 instructions:   47000000 cycles:   22407474 heartbeat IPC: 1.85208 cumulative IPC: 2.09751 (Simulation time: 0 hr 0 min 46 sec) 
Heartbeat CPU  0 instructions:   48000000 cycles:   22949723 heartbeat IPC: 1.84417 cumulative IPC: 2.09153 (Simulation time: 0 hr 0 min 46 sec) 
Heartbeat CPU  0 instructions:   49000000 cycles:   23491982 heartbeat IPC: 1.84414 cumulative IPC: 2.08582 (Simulation time: 0 hr 0 min 47 sec) 
Heartbeat CPU  0 instructions:   50000003 cycles:   24034240 heartbeat IPC: 1.84415 cumulative IPC: 2.08037 (Simulation time: 0 hr 0 min 48 sec) 
Heartbeat CPU  0 instructions:   51000002 cycles:   24576486 heartbeat IPC: 1.84418 cumulative IPC: 2.07515 (Simulation time: 0 hr 0 min 49 sec) 
Heartbeat CPU  0 instructions:   52000000 cycles:   25118736 heartbeat IPC: 1.84416 cumulative IPC: 2.07017 (Simulation time: 0 hr 0 min 50 sec) 
Heartbeat CPU  0 instructions:   53000000 cycles:   25660978 heartbeat IPC: 1.84420 cumulative IPC: 2.06539 (Simulation time: 0 hr 0 min 50 sec) 
Heartbeat CPU  0 instructions:   54000003 cycles:   26203237 heartbeat IPC: 1.84414 cumulative IPC: 2.06081 (Simulation time: 0 hr 0 min 51 sec) 
Heartbeat CPU  0 instructions:   55000002 cycles:   26745483 heartbeat IPC: 1.84418 cumulative IPC: 2.05642 (Simulation time: 0 hr 0 min 52 sec) 
Heartbeat CPU  0 instructions:   56000000 cycles:   27287728 heartbeat IPC: 1.84418 cumulative IPC: 2.05220 (Simulation time: 0 hr 0 min 53 sec) 
Heartbeat CPU  0 instructions:   57000000 cycles:   27829967 heartbeat IPC: 1.84421 cumulative IPC: 2.04815 (Simulation time: 0 hr 0 min 54 sec) 
Heartbeat CPU  0 instructions:   58000000 cycles:   28372202 heartbeat IPC: 1.84422 cumulative IPC: 2.04425 (Simulation time: 0 hr 0 min 55 sec) 
Heartbeat CPU  0 instructions:   59000000 cycles:   28914463 heartbeat IPC: 1.84413 cumulative IPC: 2.04050 (Simulation time: 0 hr 0 min 55 sec) 
Heartbeat CPU  0 instructions:   60000000 cycles:   29456708 heartbeat IPC: 1.84418 cumulative IPC: 2.03689 (Simulation time: 0 hr 0 min 56 sec) 
Heartbeat CPU  0 instructions:   61000003 cycles:   29998959 heartbeat IPC: 1.84417 cumulative IPC: 2.03340 (Simulation time: 0 hr 0 min 57 sec) 
Heartbeat CPU  0 instructions:   62000002 cycles:   30541208 heartbeat IPC: 1.84417 cumulative IPC: 2.03004 (Simulation time: 0 hr 0 min 58 sec) 
Heartbeat CPU  0 instructions:   63000001 cycles:   31083451 heartbeat IPC: 1.84419 cumulative IPC: 2.02680 (Simulation time: 0 hr 0 min 59 sec) 
Heartbeat CPU  0 instructions:   64000000 cycles:   31625696 heartbeat IPC: 1.84418 cumulative IPC: 2.02367 (Simulation time: 0 hr 0 min 59 sec) 
Heartbeat CPU  0 instructions:   65000003 cycles:   32167958 heartbeat IPC: 1.84413 cumulative IPC: 2.02064 (Simulation time: 0 hr 1 min 0 sec) 
Heartbeat CPU  0 instructions:   66000002 cycles:   32710207 heartbeat IPC: 1.84417 cumulative IPC: 2.01772 (Simulation time: 0 hr 1 min 1 sec) 
Heartbeat CPU  0 instructions:   67000001 cycles:   33252460 heartbeat IPC: 1.84416 cumulative IPC: 2.01489 (Simulation time: 0 hr 1 min 2 sec) 
Heartbeat CPU  0 instructions:   68000000 cycles:   33794708 heartbeat IPC: 1.84417 cumulative IPC: 2.01215 (Simulation time: 0 hr 1 min 3 sec) 
Heartbeat CPU  0 instructions:   69000000 cycles:   34336963 heartbeat IPC: 1.84415 cumulative IPC: 2.00950 (Simulation time: 0 hr 1 min 4 sec) 
Heartbeat CPU  0 instructions:   70000000 cycles:   34859049 heartbeat IPC: 1.91539 cumulative IPC: 2.00809 (Simulation time: 0 hr 1 min 5 sec) 
Heartbeat CPU  0 instructions:   71000003 cycles:   35379131 heartbeat IPC: 1.92278 cumulative IPC: 2.00683 (Simulation time: 0 hr 1 min 6 sec) 
Heartbeat CPU  0 instructions:   72000000 cycles:   35899197 heartbeat IPC: 1.92283 cumulative IPC: 2.00562 (Simulation time: 0 hr 1 min 8 sec) 
Heartbeat CPU  0 instructions:   73000002 cycles:   36419302 heartbeat IPC: 1.92269 cumulative IPC: 2.00443 (Simulation time: 0 hr 1 min 9 sec) 
Heartbeat CPU  0 instructions:   74000002 cycles:   36939360 heartbeat IPC: 1.92286 cumulative IPC: 2.00328 (Simulation time: 0 hr 1 min 10 sec) 
Heartbeat CPU  0 instructions:   75000001 cycles:   37459442 heartbeat IPC: 1.92277 cumulative IPC: 2.00217 (Simulation time: 0 hr 1 min 12 sec) 
Heartbeat CPU  0 instructions:   76000000 cycles:   37979484 heartbeat IPC: 1.92292 cumulative IPC: 2.00108 (Simulation time: 0 hr 1 min 13 sec) 
Heartbeat CPU  0 instructions:   77000001 cycles:   38499575 heartbeat IPC: 1.92274 cumulative IPC: 2.00002 (Simulation time: 0 hr 1 min 14 sec) 
Heartbeat CPU  0 instructions:   78000001 cycles:   39019635 heartbeat IPC: 1.92286 cumulative IPC: 1.99899 (Simulation time: 0 hr 1 min 16 sec) 
Heartbeat CPU  0 instructions:   79000000 cycles:   39539723 heartbeat IPC: 1.92275 cumulative IPC: 1.99799 (Simulation time: 0 hr 1 min 17 sec) 
Heartbeat CPU  0 instructions:   80000000 cycles:   40059771 heartbeat IPC: 1.92290 cumulative IPC: 1.99702 (Simulation time: 0 hr 1 min 19 sec) 
Heartbeat CPU  0 instructions:   81000000 cycles:   40579882 heartbeat IPC: 1.92267 cumulative IPC: 1.99606 (Simulation time: 0 hr 1 min 20 sec) 
Heartbeat CPU  0 instructions:   82000000 cycles:   41099944 heartbeat IPC: 1.92285 cumulative IPC: 1.99514 (Simulation time: 0 hr 1 min 21 sec) 
Heartbeat CPU  0 instructions:   83000003 cycles:   41620022 heartbeat IPC: 1.92279 cumulative IPC: 1.99423 (Simulation time: 0 hr 1 min 23 sec) 
Heartbeat CPU  0 instructions:   84000000 cycles:   42116636 heartbeat IPC: 2.01363 cumulative IPC: 1.99446 (Simulation time: 0 hr 1 min 24 sec) 
Heartbeat CPU  0 instructions:   85000000 cycles:   42536040 heartbeat IPC: 2.38434 cumulative IPC: 1.99831 (Simulation time: 0 hr 1 min 25 sec) 
Heartbeat CPU  0 instructions:   86000001 cycles:   42955446 heartbeat IPC: 2.38433 cumulative IPC: 2.00207 (Simulation time: 0 hr 1 min 26 sec) 
Heartbeat CPU  0 instructions:   87000003 cycles:   43374860 heartbeat IPC: 2.38428 cumulative IPC: 2.00577 (Simulation time: 0 hr 1 min 26 sec) 
Heartbeat CPU  0 instructions:   88000000 cycles:   43794332 heartbeat IPC: 2.38394 cumulative IPC: 2.00939 (Simulation time: 0 hr 1 min 27 sec) 
Heartbeat CPU  0 instructions:   89000001 cycles:   44213740 heartbeat IPC: 2.38432 cumulative IPC: 2.01295 (Simulation time: 0 hr 1 min 28 sec) 
Heartbeat CPU  0 instructions:   90000001 cycles:   44633141 heartbeat IPC: 2.38435 cumulative IPC: 2.01644 (Simulation time: 0 hr 1 min 29 sec) 
Heartbeat CPU  0 instructions:   91000000 cycles:   45052537 heartbeat IPC: 2.38438 cumulative IPC: 2.01986 (Simulation time: 0 hr 1 min 29 sec) 
Heartbeat CPU  0 instructions:   92000000 cycles:   45471972 heartbeat IPC: 2.38416 cumulative IPC: 2.02322 (Simulation time: 0 hr 1 min 30 sec) 
Heartbeat CPU  0 instructions:   93000003 cycles:   45891424 heartbeat IPC: 2.38407 cumulative IPC: 2.02652 (Simulation time: 0 hr 1 min 31 sec) 
Heartbeat CPU  0 instructions:   94000000 cycles:   46310825 heartbeat IPC: 2.38435 cumulative IPC: 2.02976 (Simulation time: 0 hr 1 min 32 sec) 
Heartbeat CPU  0 instructions:   95000002 cycles:   46730223 heartbeat IPC: 2.38437 cumulative IPC: 2.03295 (Simulation time: 0 hr 1 min 32 sec) 
Heartbeat CPU  0 instructions:   96000000 cycles:   47149642 heartbeat IPC: 2.38425 cumulative IPC: 2.03607 (Simulation time: 0 hr 1 min 33 sec) 
Heartbeat CPU  0 instructions:   97000000 cycles:   47569110 heartbeat IPC: 2.38397 cumulative IPC: 2.03914 (Simulation time: 0 hr 1 min 34 sec) 
Heartbeat CPU  0 instructions:   98000000 cycles:   47988522 heartbeat IPC: 2.38429 cumulative IPC: 2.04216 (Simulation time: 0 hr 1 min 35 sec) 
Heartbeat CPU  0 instructions:   99000003 cycles:   48407928 heartbeat IPC: 2.38433 cumulative IPC: 2.04512 (Simulation time: 0 hr 1 min 36 sec) 
Heartbeat CPU  0 instructions:  100000000 cycles:   48827332 heartbeat IPC: 2.38433 cumulative IPC: 2.04803 (Simulation time: 0 hr 1 min 36 sec) 

Warmup complete CPU  0 instructions:  100000001 cycles:   48827334 (Simulation time: 0 hr 1 min 36 sec) 

Heartbeat CPU  0 instructions:  101000003 cycles:   49901369 heartbeat IPC: 0.93107 cumulative IPC: 0.93107 (Simulation time: 0 hr 1 min 38 sec) 
Heartbeat CPU  0 instructions:  102000003 cycles:   50990513 heartbeat IPC: 0.91815 cumulative IPC: 0.92457 (Simulation time: 0 hr 1 min 39 sec) 
Heartbeat CPU  0 instructions:  103000001 cycles:   52068037 heartbeat IPC: 0.92805 cumulative IPC: 0.92573 (Simulation time: 0 hr 1 min 41 sec) 
Heartbeat CPU  0 instructions:  104000000 cycles:   53142988 heartbeat IPC: 0.93027 cumulative IPC: 0.92686 (Simulation time: 0 hr 1 min 42 sec) 
Heartbeat CPU  0 instructions:  105000000 cycles:   54231128 heartbeat IPC: 0.91900 cumulative IPC: 0.92528 (Simulation time: 0 hr 1 min 43 sec) 
Heartbeat CPU  0 instructions:  106000002 cycles:   55308022 heartbeat IPC: 0.92860 cumulative IPC: 0.92583 (Simulation time: 0 hr 1 min 45 sec) 
Heartbeat CPU  0 instructions:  107000000 cycles:   56394982 heartbeat IPC: 0.92000 cumulative IPC: 0.92499 (Simulation time: 0 hr 1 min 46 sec) 
Heartbeat CPU  0 instructions:  108000000 cycles:   57454123 heartbeat IPC: 0.94416 cumulative IPC: 0.92734 (Simulation time: 0 hr 1 min 48 sec) 
Heartbeat CPU  0 instructions:  109000000 cycles:   58546065 heartbeat IPC: 0.91580 cumulative IPC: 0.92605 (Simulation time: 0 hr 1 min 49 sec) 
Heartbeat CPU  0 instructions:  110000001 cycles:   59713290 heartbeat IPC: 0.85673 cumulative IPC: 0.91861 (Simulation time: 0 hr 1 min 50 sec) 
Heartbeat CPU  0 instructions:  111000001 cycles:   60879811 heartbeat IPC: 0.85725 cumulative IPC: 0.91268 (Simulation time: 0 hr 1 min 52 sec) 
Heartbeat CPU  0 instructions:  112000000 cycles:   62047230 heartbeat IPC: 0.85659 cumulative IPC: 0.90772 (Simulation time: 0 hr 1 min 53 sec) 
Heartbeat CPU  0 instructions:  113000002 cycles:   63231284 heartbeat IPC: 0.84456 cumulative IPC: 0.90253 (Simulation time: 0 hr 1 min 55 sec) 
Heartbeat CPU  0 instructions:  114000002 cycles:   64406276 heartbeat IPC: 0.85107 cumulative IPC: 0.89865 (Simulation time: 0 hr 1 min 56 sec) 
Heartbeat CPU  0 instructions:  115000003 cycles:   65577205 heartbeat IPC: 0.85402 cumulative IPC: 0.89553 (Simulation time: 0 hr 1 min 57 sec) 
Heartbeat CPU  0 instructions:  116000000 cycles:   66762811 heartbeat IPC: 0.84345 cumulative IPC: 0.89209 (Simulation time: 0 hr 1 min 59 sec) 
Heartbeat CPU  0 instructions:  117000000 cycles:   67938714 heartbeat IPC: 0.85041 cumulative IPC: 0.88952 (Simulation time: 0 hr 2 min 0 sec) 
Heartbeat CPU  0 instructions:  118000000 cycles:   69121876 heartbeat IPC: 0.84519 cumulative IPC: 0.88694 (Simulation time: 0 hr 2 min 2 sec) 
Heartbeat CPU  0 instructions:  119000001 cycles:   70306921 heartbeat IPC: 0.84385 cumulative IPC: 0.88456 (Simulation time: 0 hr 2 min 3 sec) 
Heartbeat CPU  0 instructions:  120000000 cycles:   71480659 heartbeat IPC: 0.85198 cumulative IPC: 0.88287 (Simulation time: 0 hr 2 min 4 sec) 
Heartbeat CPU  0 instructions:  121000000 cycles:   72663499 heartbeat IPC: 0.84542 cumulative IPC: 0.88101 (Simulation time: 0 hr 2 min 6 sec) 
Heartbeat CPU  0 instructions:  122000002 cycles:   73843689 heartbeat IPC: 0.84732 cumulative IPC: 0.87942 (Simulation time: 0 hr 2 min 7 sec) 
Heartbeat CPU  0 instructions:  123000002 cycles:   75022517 heartbeat IPC: 0.84830 cumulative IPC: 0.87802 (Simulation time: 0 hr 2 min 9 sec) 
Heartbeat CPU  0 instructions:  124000000 cycles:   76206971 heartbeat IPC: 0.84427 cumulative IPC: 0.87656 (Simulation time: 0 hr 2 min 10 sec) 
Heartbeat CPU  0 instructions:  125000003 cycles:   77386801 heartbeat IPC: 0.84758 cumulative IPC: 0.87537 (Simulation time: 0 hr 2 min 12 sec) 
Heartbeat CPU  0 instructions:  126000000 cycles:   78568379 heartbeat IPC: 0.84632 cumulative IPC: 0.87421 (Simulation time: 0 hr 2 min 13 sec) 
Heartbeat CPU  0 instructions:  127000000 cycles:   79750625 heartbeat IPC: 0.84585 cumulative IPC: 0.87313 (Simulation time: 0 hr 2 min 14 sec) 
Heartbeat CPU  0 instructions:  128000000 cycles:   80930221 heartbeat IPC: 0.84775 cumulative IPC: 0.87220 (Simulation time: 0 hr 2 min 16 sec) 
Heartbeat CPU  0 instructions:  129000001 cycles:   82116338 heartbeat IPC: 0.84309 cumulative IPC: 0.87116 (Simulation time: 0 hr 2 min 17 sec) 
Heartbeat CPU  0 instructions:  130000001 cycles:   83300395 heartbeat IPC: 0.84455 cumulative IPC: 0.87024 (Simulation time: 0 hr 2 min 19 sec) 
Heartbeat CPU  0 instructions:  131000000 cycles:   84878981 heartbeat IPC: 0.63348 cumulative IPC: 0.85988 (Simulation time: 0 hr 2 min 21 sec) 
Heartbeat CPU  0 instructions:  132000000 cycles:   87170100 heartbeat IPC: 0.43647 cumulative IPC: 0.83458 (Simulation time: 0 hr 2 min 23 sec) 
Heartbeat CPU  0 instructions:  133000000 cycles:   89447677 heartbeat IPC: 0.43906 cumulative IPC: 0.81240 (Simulation time: 0 hr 2 min 25 sec) 
Heartbeat CPU  0 instructions:  134000000 cycles:   91724476 heartbeat IPC: 0.43921 cumulative IPC: 0.79259 (Simulation time: 0 hr 2 min 27 sec) 
Heartbeat CPU  0 instructions:  135000000 cycles:   93994673 heartbeat IPC: 0.44049 cumulative IPC: 0.77490 (Simulation time: 0 hr 2 min 30 sec) 
Heartbeat CPU  0 instructions:  136000000 cycles:   96266856 heartbeat IPC: 0.44011 cumulative IPC: 0.75886 (Simulation time: 0 hr 2 min 32 sec) 
Heartbeat CPU  0 instructions:  137000000 cycles:   98541709 heartbeat IPC: 0.43959 cumulative IPC: 0.74425 (Simulation time: 0 hr 2 min 34 sec) 
Heartbeat CPU  0 instructions:  138000000 cycles:  100821569 heartbeat IPC: 0.43862 cumulative IPC: 0.73085 (Simulation time: 0 hr 2 min 36 sec) 
Heartbeat CPU  0 instructions:  139000000 cycles:  103090943 heartbeat IPC: 0.44065 cumulative IPC: 0.71871 (Simulation time: 0 hr 2 min 39 sec) 
Heartbeat CPU  0 instructions:  140000000 cycles:  105358019 heartbeat IPC: 0.44110 cumulative IPC: 0.70758 (Simulation time: 0 hr 2 min 41 sec) 
Heartbeat CPU  0 instructions:  141000000 cycles:  107626904 heartbeat IPC: 0.44075 cumulative IPC: 0.69728 (Simulation time: 0 hr 2 min 43 sec) 
Heartbeat CPU  0 instructions:  142000000 cycles:  109893670 heartbeat IPC: 0.44116 cumulative IPC: 0.68778 (Simulation time: 0 hr 2 min 45 sec) 
Heartbeat CPU  0 instructions:  143000000 cycles:  112159245 heartbeat IPC: 0.44139 cumulative IPC: 0.67896 (Simulation time: 0 hr 2 min 48 sec) 
Heartbeat CPU  0 instructions:  144000000 cycles:  114428442 heartbeat IPC: 0.44068 cumulative IPC: 0.67072 (Simulation time: 0 hr 2 min 50 sec) 
Heartbeat CPU  0 instructions:  145000002 cycles:  116526551 heartbeat IPC: 0.47662 cumulative IPC: 0.66470 (Simulation time: 0 hr 2 min 52 sec) 
Heartbeat CPU  0 instructions:  146000000 cycles:  118095552 heartbeat IPC: 0.63735 cumulative IPC: 0.66409 (Simulation time: 0 hr 2 min 54 sec) 
Heartbeat CPU  0 instructions:  147000000 cycles:  119520444 heartbeat IPC: 0.70181 cumulative IPC: 0.66485 (Simulation time: 0 hr 2 min 55 sec) 
Heartbeat CPU  0 instructions:  148000000 cycles:  120929062 heartbeat IPC: 0.70992 cumulative IPC: 0.66573 (Simulation time: 0 hr 2 min 57 sec) 
Heartbeat CPU  0 instructions:  149000000 cycles:  122213046 heartbeat IPC: 0.77883 cumulative IPC: 0.66770 (Simulation time: 0 hr 2 min 58 sec) 
Heartbeat CPU  0 instructions:  150000001 cycles:  123325366 heartbeat IPC: 0.89902 cumulative IPC: 0.67116 (Simulation time: 0 hr 3 min 0 sec) 
Heartbeat CPU  0 instructions:  151000000 cycles:  124415009 heartbeat IPC: 0.91773 cumulative IPC: 0.67471 (Simulation time: 0 hr 3 min 1 sec) 
Heartbeat CPU  0 instructions:  152000000 cycles:  125506095 heartbeat IPC: 0.91652 cumulative IPC: 0.67815 (Simulation time: 0 hr 3 min 3 sec) 
Heartbeat CPU  0 instructions:  153000001 cycles:  126593682 heartbeat IPC: 0.91947 cumulative IPC: 0.68153 (Simulation time: 0 hr 3 min 4 sec) 
Heartbeat CPU  0 instructions:  154000003 cycles:  127681139 heartbeat IPC: 0.91958 cumulative IPC: 0.68481 (Simulation time: 0 hr 3 min 5 sec) 
Heartbeat CPU  0 instructions:  155000001 cycles:  128772580 heartbeat IPC: 0.91622 cumulative IPC: 0.68797 (Simulation time: 0 hr 3 min 7 sec) 
Heartbeat CPU  0 instructions:  156000000 cycles:  129863193 heartbeat IPC: 0.91691 cumulative IPC: 0.69105 (Simulation time: 0 hr 3 min 8 sec) 
Heartbeat CPU  0 instructions:  157000002 cycles:  130951957 heartbeat IPC: 0.91847 cumulative IPC: 0.69407 (Simulation time: 0 hr 3 min 10 sec) 
Heartbeat CPU  0 instructions:  158000000 cycles:  132042903 heartbeat IPC: 0.91663 cumulative IPC: 0.69698 (Simulation time: 0 hr 3 min 11 sec) 
Heartbeat CPU  0 instructions:  159000002 cycles:  133131014 heartbeat IPC: 0.91903 cumulative IPC: 0.69985 (Simulation time: 0 hr 3 min 13 sec) 
Heartbeat CPU  0 instructions:  160000000 cycles:  134221539 heartbeat IPC: 0.91699 cumulative IPC: 0.70262 (Simulation time: 0 hr 3 min 14 sec) 
Heartbeat CPU  0 instructions:  161000000 cycles:  135310137 heartbeat IPC: 0.91861 cumulative IPC: 0.70534 (Simulation time: 0 hr 3 min 15 sec) 
Heartbeat CPU  0 instructions:  162000002 cycles:  136398253 heartbeat IPC: 0.91902 cumulative IPC: 0.70800 (Simulation time: 0 hr 3 min 17 sec) 
Heartbeat CPU  0 instructions:  163000000 cycles:  137486543 heartbeat IPC: 0.91887 cumulative IPC: 0.71059 (Simulation time: 0 hr 3 min 18 sec) 
Heartbeat CPU  0 instructions:  164000000 cycles:  138574879 heartbeat IPC: 0.91883 cumulative IPC: 0.71311 (Simulation time: 0 hr 3 min 20 sec) 
Heartbeat CPU  0 instructions:  165000001 cycles:  139665583 heartbeat IPC: 0.91684 cumulative IPC: 0.71556 (Simulation time: 0 hr 3 min 21 sec) 
Heartbeat CPU  0 instructions:  166000003 cycles:  140753745 heartbeat IPC: 0.91898 cumulative IPC: 0.71797 (Simulation time: 0 hr 3 min 23 sec) 
Heartbeat CPU  0 instructions:  167000001 cycles:  141841830 heartbeat IPC: 0.91904 cumulative IPC: 0.72032 (Simulation time: 0 hr 3 min 24 sec) 
Heartbeat CPU  0 instructions:  168000000 cycles:  142935064 heartbeat IPC: 0.91472 cumulative IPC: 0.72258 (Simulation time: 0 hr 3 min 25 sec) 
Heartbeat CPU  0 instructions:  169000000 cycles:  143979980 heartbeat IPC: 0.95701 cumulative IPC: 0.72515 (Simulation time: 0 hr 3 min 27 sec) 
Heartbeat CPU  0 instructions:  170000003 cycles:  145095198 heartbeat IPC: 0.89669 cumulative IPC: 0.72714 (Simulation time: 0 hr 3 min 28 sec) 
Heartbeat CPU  0 instructions:  171000001 cycles:  146255430 heartbeat IPC: 0.86189 cumulative IPC: 0.72874 (Simulation time: 0 hr 3 min 30 sec) 
Heartbeat CPU  0 instructions:  172000000 cycles:  147418028 heartbeat IPC: 0.86014 cumulative IPC: 0.73029 (Simulation time: 0 hr 3 min 31 sec) 
Heartbeat CPU  0 instructions:  173000001 cycles:  148580944 heartbeat IPC: 0.85991 cumulative IPC: 0.73180 (Simulation time: 0 hr 3 min 33 sec) 
Heartbeat CPU  0 instructions:  174000000 cycles:  149749190 heartbeat IPC: 0.85598 cumulative IPC: 0.73324 (Simulation time: 0 hr 3 min 34 sec) 
Heartbeat CPU  0 instructions:  175000002 cycles:  150917090 heartbeat IPC: 0.85624 cumulative IPC: 0.73465 (Simulation time: 0 hr 3 min 36 sec) 
Heartbeat CPU  0 instructions:  176000000 cycles:  152081616 heartbeat IPC: 0.85872 cumulative IPC: 0.73605 (Simulation time: 0 hr 3 min 37 sec) 
Heartbeat CPU  0 instructions:  177000002 cycles:  153251161 heartbeat IPC: 0.85504 cumulative IPC: 0.73738 (Simulation time: 0 hr 3 min 39 sec) 
Heartbeat CPU  0 instructions:  178000000 cycles:  154419518 heartbeat IPC: 0.85590 cumulative IPC: 0.73869 (Simulation time: 0 hr 3 min 40 sec) 
Heartbeat CPU  0 instructions:  179000003 cycles:  155588927 heartbeat IPC: 0.85514 cumulative IPC: 0.73997 (Simulation time: 0 hr 3 min 42 sec) 
Heartbeat CPU  0 instructions:  180000000 cycles:  156760671 heartbeat IPC: 0.85343 cumulative IPC: 0.74120 (Simulation time: 0 hr 3 min 43 sec) 
Heartbeat CPU  0 instructions:  181000000 cycles:  157927418 heartbeat IPC: 0.85708 cumulative IPC: 0.74244 (Simulation time: 0 hr 3 min 44 sec) 
Heartbeat CPU  0 instructions:  182000001 cycles:  159095945 heartbeat IPC: 0.85578 cumulative IPC: 0.74364 (Simulation time: 0 hr 3 min 46 sec) 
Heartbeat CPU  0 instructions:  183000000 cycles:  160265187 heartbeat IPC: 0.85525 cumulative IPC: 0.74481 (Simulation time: 0 hr 3 min 47 sec) 
Heartbeat CPU  0 instructions:  184000000 cycles:  161432904 heartbeat IPC: 0.85637 cumulative IPC: 0.74597 (Simulation time: 0 hr 3 min 49 sec) 
Heartbeat CPU  0 instructions:  185000001 cycles:  162603857 heartbeat IPC: 0.85401 cumulative IPC: 0.74708 (Simulation time: 0 hr 3 min 50 sec) 
Heartbeat CPU  0 instructions:  186000002 cycles:  163772053 heartbeat IPC: 0.85602 cumulative IPC: 0.74819 (Simulation time: 0 hr 3 min 52 sec) 
Heartbeat CPU  0 instructions:  187000000 cycles:  164939223 heartbeat IPC: 0.85677 cumulative IPC: 0.74928 (Simulation time: 0 hr 3 min 53 sec) 
Heartbeat CPU  0 instructions:  188000000 cycles:  166107503 heartbeat IPC: 0.85596 cumulative IPC: 0.75034 (Simulation time: 0 hr 3 min 55 sec) 
Heartbeat CPU  0 instructions:  189000001 cycles:  167274481 heartbeat IPC: 0.85692 cumulative IPC: 0.75139 (Simulation time: 0 hr 3 min 56 sec) 
Heartbeat CPU  0 instructions:  190000000 cycles:  168444386 heartbeat IPC: 0.85477 cumulative IPC: 0.75240 (Simulation time: 0 hr 3 min 58 sec) 
Heartbeat CPU  0 instructions:  191000000 cycles:  169628430 heartbeat IPC: 0.84456 cumulative IPC: 0.75330 (Simulation time: 0 hr 3 min 59 sec) 
Heartbeat CPU  0 instructions:  192000000 cycles:  171128534 heartbeat IPC: 0.66662 cumulative IPC: 0.75224 (Simulation time: 0 hr 4 min 1 sec) 
Heartbeat CPU  0 instructions:  193000000 cycles:  173453210 heartbeat IPC: 0.43017 cumulative IPC: 0.74623 (Simulation time: 0 hr 4 min 3 sec) 
Heartbeat CPU  0 instructions:  194000000 cycles:  175763002 heartbeat IPC: 0.43294 cumulative IPC: 0.74053 (Simulation time: 0 hr 4 min 6 sec) 
Heartbeat CPU  0 instructions:  195000000 cycles:  178077135 heartbeat IPC: 0.43213 cumulative IPC: 0.73501 (Simulation time: 0 hr 4 min 8 sec) 
Heartbeat CPU  0 instructions:  196000000 cycles:  180380265 heartbeat IPC: 0.43419 cumulative IPC: 0.72974 (Simulation time: 0 hr 4 min 10 sec) 
Heartbeat CPU  0 instructions:  197000000 cycles:  182685888 heartbeat IPC: 0.43372 cumulative IPC: 0.72465 (Simulation time: 0 hr 4 min 12 sec) 
Heartbeat CPU  0 instructions:  198000000 cycles:  184991896 heartbeat IPC: 0.43365 cumulative IPC: 0.71972 (Simulation time: 0 hr 4 min 14 sec) 
Heartbeat CPU  0 instructions:  199000000 cycles:  187308636 heartbeat IPC: 0.43164 cumulative IPC: 0.71490 (Simulation time: 0 hr 4 min 17 sec) 
Heartbeat CPU  0 instructions:  200000000 cycles:  189603990 heartbeat IPC: 0.43566 cumulative IPC: 0.71035 (Simulation time: 0 hr 4 min 19 sec) 
Finished CPU 0 instructions: 100000000 cycles: 140776669 cumulative IPC: 0.71034 (Simulation time: 0 hr 4 min 19 sec) 

ChampSim completed all CPUs

[ROI Statistics]
Core_0_instructions 100000000
Core_0_cycles 140776669
Core_0_IPC 0.71034

Core_0_branch_prediction_accuracy 99.58952
Core_0_branch_MPKI 0.70683
Core_0_average_ROB_occupancy_at_mispredict 218.77886

Core_0_L1D_total_access 13398024
Core_0_L1D_total_hit 10821801
Core_0_L1D_total_miss 2576223
Core_0_L1D_loads 9905048
Core_0_L1D_load_hit 7328845
Core_0_L1D_load_miss 2576203
Core_0_L1D_RFOs 3492976
Core_0_L1D_RFO_hit 3492956
Core_0_L1D_RFO_miss 20
Core_0_L1D_prefetches 0
Core_0_L1D_prefetch_hit 0
Core_0_L1D_prefetch_miss 0
Core_0_L1D_writebacks 0
Core_0_L1D_writeback_hit 0
Core_0_L1D_writeback_miss 0
Core_0_L1D_prefetch_requested 0
Core_0_L1D_prefetch_issued 0
Core_0_L1D_prefetch_useful 0
Core_0_L1D_prefetch_useless 0
Core_0_L1D_prefetch_late 0
Core_0_L1D_average_miss_latency 106.71034

Core_0_L1I_total_access 32462498
Core_0_L1I_total_hit 32462497
Core_0_L1I_total_miss 1
Core_0_L1I_loads 32462498
Core_0_L1I_load_hit 32462497
Core_0_L1I_load_miss 1
Core_0_L1I_RFOs 0
Core_0_L1I_RFO_hit 0
Core_0_L1I_RFO_miss 0
Core_0_L1I_prefetches 0
Core_0_L1I_prefetch_hit 0
Core_0_L1I_prefetch_miss 0
Core_0_L1I_writebacks 0
Core_0_L1I_writeback_hit 0
Core_0_L1I_writeback_miss 0
Core_0_L1I_prefetch_requested 0
Core_0_L1I_prefetch_issued 0
Core_0_L1I_prefetch_useful 0
Core_0_L1I_prefetch_useless 0
Core_0_L1I_prefetch_late 0
Core_0_L1I_average_miss_latency 262.00000

Core_0_L2C_total_access 5566372
Core_0_L2C_total_hit 2990136
Core_0_L2C_total_miss 2576236
Core_0_L2C_loads 2576204
Core_0_L2C_load_hit 1133712
Core_0_L2C_load_miss 1442492
Core_0_L2C_RFOs 20
Core_0_L2C_RFO_hit 0
Core_0_L2C_RFO_miss 20
Core_0_L2C_prefetches 2040003
Core_0_L2C_prefetch_hit 906279
Core_0_L2C_prefetch_miss 1133724
Core_0_L2C_writebacks 950145
Core_0_L2C_writeback_hit 950145
Core_0_L2C_writeback_miss 0
Core_0_L2C_prefetch_requested 15190374
Core_0_L2C_prefetch_issued 15190374
Core_0_L2C_prefetch_useful 3743953
Core_0_L2C_prefetch_useless 30
Core_0_L2C_prefetch_late 1372209
Core_0_L2C_average_miss_latency 158.43490

Core_0_LLC_total_access 3699995
Core_0_LLC_total_hit 839426
Core_0_LLC_total_miss 2860569
Core_0_LLC_loads 70285
Core_0_LLC_load_hit 220
Core_0_LLC_load_miss 70065
Core_0_LLC_RFOs 20
Core_0_LLC_RFO_hit 0
Core_0_LLC_RFO_miss 20
Core_0_LLC_prefetches 2686987
Core_0_LLC_prefetch_hit 180821
Core_0_LLC_prefetch_miss 2506166
Core_0_LLC_writebacks 942703
Core_0_LLC_writeback_hit 658385
Core_0_LLC_writeback_miss 284318
Core_0_LLC_prefetch_requested 4524136
Core_0_LLC_prefetch_issued 4446733
Core_0_LLC_prefetch_useful 1284
Core_0_LLC_prefetch_useless 5088250
Core_0_LLC_prefetch_late 254
Core_0_LLC_average_miss_latency 171.85669

Core_0_major_page_fault 0
Core_0_minor_page_fault 8199

CPU 0 L2C PC-based stride prefetcher final stats
LLC Next Line Prefetcher Final Stats: none
Channel_0_RQ_row_buffer_hit 1367572
Channel_0_RQ_row_buffer_miss 1208679
Channel_0_WQ_row_buffer_hit 176289
Channel_0_WQ_row_buffer_miss 741708
Channel_0_WQ_full 0
Channel_0_dbus_congested 2038318

avg_congested_cycle 10
