*************************************************
   ChampSim Multicore Out-of-Order Simulator
   Last compiled: Dec 21 2023 18:01:45
*************************************************

trace_0 ./test_trace/462.libquantum-714B.champsimtrace.xz
CPU 0 L1D next line prefetcher
CPU 0 L2C next line prefetcher
LLC Next Line Prefetcher
warmup_instructions 100000000
simulation_instructions 100000000
champsim_seed 222

num_cpus 1
cpu_freq 4000
dram_io_freq 2400
page_size 4096
block_size 64
max_read_per_cycle 8
max_fill_per_cycle 1
dram_channels 1
dram_ranks 1
dram_banks 8
dram_rows 65536
dram_columns 128
dram_row_size 8
dram_size 4096
dram_pages 1048576

fetch_width 6
decode_width 6
exec_width 4
lq_width 2
sq_width 2
retire_width 4
scheduler_size 128
branch_mispredict_penalty 20
rob_size 256
lq_size 72
sq_size 56
num_instr_destinations_sparc 4
num_instr_destinations 2
num_instr_sources 4

itlb_set 16
itlb_way 8
itlb_rq_size 16
itlb_wq_size 16
itlb_pq_size 0
itlb_mshr_size 8
itlb_latency 1

dtlb_set 16
dtlb_way 4
dtlb_rq_size 16
dtlb_wq_size 16
dtlb_pq_size 0
dtlb_mshr_size 8
dtlb_latency 1

stlb_set 128
stlb_way 12
stlb_rq_size 32
stlb_wq_size 32
stlb_pq_size 0
stlb_mshr_size 16
stlb_latency 8

l1i_size 32
l1i_set 64
l1i_way 8
l1i_rq_size 64
l1i_wq_size 64
l1i_pq_size 8
l1i_mshr_size 8
l1i_latency 1

l1d_size 32
l1d_set 64
l1d_way 8
l1d_rq_size 64
l1d_wq_size 64
l1d_pq_size 8
l1d_mshr_size 16
l1d_latency 4

l2c_size 512
l2c_set 1024
l2c_way 8
l2c_rq_size 32
l2c_wq_size 32
l2c_pq_size 16
l2c_mshr_size 32
l2c_latency 10

llc_size 2048
llc_set 2048
llc_way 16
llc_rq_size 32
llc_wq_size 32
llc_pq_size 32
llc_mshr_size 64
llc_latency 20

dram_channel_width 8
dram_wq_size 64
dram_rq_size 64
tRP 15
tRCD 15
tCAS 12.5
dram_dbus_turn_around_time 30
dram_write_high_wm 56
dram_write_low_wm 48
min_dram_writes_per_switch 16
dram_mtps 2400
dram_dbus_return_time 13


Heartbeat CPU  0 instructions:    1000000 cycles:     581510 heartbeat IPC: 1.71966 cumulative IPC: 1.71966 (Simulation time: 0 hr 0 min 1 sec) 
Heartbeat CPU  0 instructions:    2000003 cycles:    1163543 heartbeat IPC: 1.71812 cumulative IPC: 1.71889 (Simulation time: 0 hr 0 min 1 sec) 
Heartbeat CPU  0 instructions:    3000002 cycles:    1745575 heartbeat IPC: 1.71812 cumulative IPC: 1.71863 (Simulation time: 0 hr 0 min 2 sec) 
Heartbeat CPU  0 instructions:    4000000 cycles:    2327604 heartbeat IPC: 1.71812 cumulative IPC: 1.71851 (Simulation time: 0 hr 0 min 3 sec) 
Heartbeat CPU  0 instructions:    5000000 cycles:    2909636 heartbeat IPC: 1.71812 cumulative IPC: 1.71843 (Simulation time: 0 hr 0 min 4 sec) 
Heartbeat CPU  0 instructions:    6000000 cycles:    3491670 heartbeat IPC: 1.71811 cumulative IPC: 1.71838 (Simulation time: 0 hr 0 min 5 sec) 
Heartbeat CPU  0 instructions:    7000000 cycles:    4073701 heartbeat IPC: 1.71812 cumulative IPC: 1.71834 (Simulation time: 0 hr 0 min 5 sec) 
Heartbeat CPU  0 instructions:    8000000 cycles:    4655734 heartbeat IPC: 1.71812 cumulative IPC: 1.71831 (Simulation time: 0 hr 0 min 6 sec) 
Heartbeat CPU  0 instructions:    9000002 cycles:    5192884 heartbeat IPC: 1.86168 cumulative IPC: 1.73314 (Simulation time: 0 hr 0 min 7 sec) 
Heartbeat CPU  0 instructions:   10000002 cycles:    5715746 heartbeat IPC: 1.91255 cumulative IPC: 1.74955 (Simulation time: 0 hr 0 min 9 sec) 
Heartbeat CPU  0 instructions:   11000001 cycles:    6238631 heartbeat IPC: 1.91246 cumulative IPC: 1.76321 (Simulation time: 0 hr 0 min 10 sec) 
Heartbeat CPU  0 instructions:   12000000 cycles:    6761493 heartbeat IPC: 1.91255 cumulative IPC: 1.77476 (Simulation time: 0 hr 0 min 11 sec) 
Heartbeat CPU  0 instructions:   13000001 cycles:    7284402 heartbeat IPC: 1.91238 cumulative IPC: 1.78464 (Simulation time: 0 hr 0 min 13 sec) 
Heartbeat CPU  0 instructions:   14000001 cycles:    7807264 heartbeat IPC: 1.91255 cumulative IPC: 1.79320 (Simulation time: 0 hr 0 min 14 sec) 
Heartbeat CPU  0 instructions:   15000000 cycles:    8330149 heartbeat IPC: 1.91246 cumulative IPC: 1.80069 (Simulation time: 0 hr 0 min 15 sec) 
Heartbeat CPU  0 instructions:   16000000 cycles:    8853011 heartbeat IPC: 1.91255 cumulative IPC: 1.80729 (Simulation time: 0 hr 0 min 17 sec) 
Heartbeat CPU  0 instructions:   17000000 cycles:    9375920 heartbeat IPC: 1.91238 cumulative IPC: 1.81316 (Simulation time: 0 hr 0 min 18 sec) 
Heartbeat CPU  0 instructions:   18000000 cycles:    9898782 heartbeat IPC: 1.91255 cumulative IPC: 1.81841 (Simulation time: 0 hr 0 min 20 sec) 
Heartbeat CPU  0 instructions:   19000003 cycles:   10421667 heartbeat IPC: 1.91247 cumulative IPC: 1.82313 (Simulation time: 0 hr 0 min 21 sec) 
Heartbeat CPU  0 instructions:   20000000 cycles:   10944529 heartbeat IPC: 1.91254 cumulative IPC: 1.82740 (Simulation time: 0 hr 0 min 22 sec) 
Heartbeat CPU  0 instructions:   21000003 cycles:   11467438 heartbeat IPC: 1.91238 cumulative IPC: 1.83127 (Simulation time: 0 hr 0 min 24 sec) 
Heartbeat CPU  0 instructions:   22000003 cycles:   11990300 heartbeat IPC: 1.91255 cumulative IPC: 1.83482 (Simulation time: 0 hr 0 min 25 sec) 
Heartbeat CPU  0 instructions:   23000000 cycles:   12504816 heartbeat IPC: 1.94357 cumulative IPC: 1.83929 (Simulation time: 0 hr 0 min 26 sec) 
Heartbeat CPU  0 instructions:   24000000 cycles:   12925097 heartbeat IPC: 2.37936 cumulative IPC: 1.85685 (Simulation time: 0 hr 0 min 27 sec) 
Heartbeat CPU  0 instructions:   25000000 cycles:   13345373 heartbeat IPC: 2.37939 cumulative IPC: 1.87331 (Simulation time: 0 hr 0 min 28 sec) 
Heartbeat CPU  0 instructions:   26000000 cycles:   13765659 heartbeat IPC: 2.37933 cumulative IPC: 1.88876 (Simulation time: 0 hr 0 min 28 sec) 
Heartbeat CPU  0 instructions:   27000000 cycles:   14185970 heartbeat IPC: 2.37919 cumulative IPC: 1.90329 (Simulation time: 0 hr 0 min 29 sec) 
Heartbeat CPU  0 instructions:   28000000 cycles:   14606278 heartbeat IPC: 2.37921 cumulative IPC: 1.91698 (Simulation time: 0 hr 0 min 30 sec) 
Heartbeat CPU  0 instructions:   29000002 cycles:   15026556 heartbeat IPC: 2.37938 cumulative IPC: 1.92992 (Simulation time: 0 hr 0 min 31 sec) 
Heartbeat CPU  0 instructions:   30000003 cycles:   15446822 heartbeat IPC: 2.37945 cumulative IPC: 1.94215 (Simulation time: 0 hr 0 min 31 sec) 
Heartbeat CPU  0 instructions:   31000001 cycles:   15867116 heartbeat IPC: 2.37928 cumulative IPC: 1.95373 (Simulation time: 0 hr 0 min 32 sec) 
Heartbeat CPU  0 instructions:   32000000 cycles:   16287435 heartbeat IPC: 2.37914 cumulative IPC: 1.96470 (Simulation time: 0 hr 0 min 33 sec) 
Heartbeat CPU  0 instructions:   33000003 cycles:   16707709 heartbeat IPC: 2.37941 cumulative IPC: 1.97514 (Simulation time: 0 hr 0 min 33 sec) 
Heartbeat CPU  0 instructions:   34000000 cycles:   17127971 heartbeat IPC: 2.37946 cumulative IPC: 1.98506 (Simulation time: 0 hr 0 min 34 sec) 
Heartbeat CPU  0 instructions:   35000002 cycles:   17548260 heartbeat IPC: 2.37932 cumulative IPC: 1.99450 (Simulation time: 0 hr 0 min 35 sec) 
Heartbeat CPU  0 instructions:   36000000 cycles:   17968573 heartbeat IPC: 2.37917 cumulative IPC: 2.00350 (Simulation time: 0 hr 0 min 36 sec) 
Heartbeat CPU  0 instructions:   37000000 cycles:   18388889 heartbeat IPC: 2.37916 cumulative IPC: 2.01208 (Simulation time: 0 hr 0 min 36 sec) 
Heartbeat CPU  0 instructions:   38000002 cycles:   18809158 heartbeat IPC: 2.37943 cumulative IPC: 2.02029 (Simulation time: 0 hr 0 min 37 sec) 
Heartbeat CPU  0 instructions:   39000000 cycles:   19229441 heartbeat IPC: 2.37934 cumulative IPC: 2.02814 (Simulation time: 0 hr 0 min 38 sec) 
Heartbeat CPU  0 instructions:   40000000 cycles:   19649735 heartbeat IPC: 2.37929 cumulative IPC: 2.03565 (Simulation time: 0 hr 0 min 38 sec) 
Heartbeat CPU  0 instructions:   41000002 cycles:   20070071 heartbeat IPC: 2.37905 cumulative IPC: 2.04284 (Simulation time: 0 hr 0 min 39 sec) 
Heartbeat CPU  0 instructions:   42000003 cycles:   20490341 heartbeat IPC: 2.37943 cumulative IPC: 2.04975 (Simulation time: 0 hr 0 min 40 sec) 
Heartbeat CPU  0 instructions:   43000001 cycles:   20910611 heartbeat IPC: 2.37942 cumulative IPC: 2.05637 (Simulation time: 0 hr 0 min 41 sec) 
Heartbeat CPU  0 instructions:   44000000 cycles:   21330881 heartbeat IPC: 2.37942 cumulative IPC: 2.06274 (Simulation time: 0 hr 0 min 41 sec) 
Heartbeat CPU  0 instructions:   45000001 cycles:   21751184 heartbeat IPC: 2.37924 cumulative IPC: 2.06885 (Simulation time: 0 hr 0 min 42 sec) 
Heartbeat CPU  0 instructions:   46000001 cycles:   22171491 heartbeat IPC: 2.37921 cumulative IPC: 2.07474 (Simulation time: 0 hr 0 min 43 sec) 
Heartbeat CPU  0 instructions:   47000000 cycles:   22750998 heartbeat IPC: 1.72560 cumulative IPC: 2.06584 (Simulation time: 0 hr 0 min 44 sec) 
Heartbeat CPU  0 instructions:   48000000 cycles:   23333737 heartbeat IPC: 1.71603 cumulative IPC: 2.05711 (Simulation time: 0 hr 0 min 44 sec) 
Heartbeat CPU  0 instructions:   49000000 cycles:   23916481 heartbeat IPC: 1.71602 cumulative IPC: 2.04880 (Simulation time: 0 hr 0 min 45 sec) 
Heartbeat CPU  0 instructions:   50000002 cycles:   24499223 heartbeat IPC: 1.71603 cumulative IPC: 2.04088 (Simulation time: 0 hr 0 min 46 sec) 
Heartbeat CPU  0 instructions:   51000002 cycles:   25081964 heartbeat IPC: 1.71603 cumulative IPC: 2.03333 (Simulation time: 0 hr 0 min 47 sec) 
Heartbeat CPU  0 instructions:   52000000 cycles:   25664703 heartbeat IPC: 1.71603 cumulative IPC: 2.02613 (Simulation time: 0 hr 0 min 48 sec) 
Heartbeat CPU  0 instructions:   53000000 cycles:   26247444 heartbeat IPC: 1.71603 cumulative IPC: 2.01924 (Simulation time: 0 hr 0 min 48 sec) 
Heartbeat CPU  0 instructions:   54000003 cycles:   26830187 heartbeat IPC: 1.71603 cumulative IPC: 2.01266 (Simulation time: 0 hr 0 min 49 sec) 
Heartbeat CPU  0 instructions:   55000002 cycles:   27412929 heartbeat IPC: 1.71602 cumulative IPC: 2.00635 (Simulation time: 0 hr 0 min 50 sec) 
Heartbeat CPU  0 instructions:   56000000 cycles:   27995668 heartbeat IPC: 1.71603 cumulative IPC: 2.00031 (Simulation time: 0 hr 0 min 51 sec) 
Heartbeat CPU  0 instructions:   57000000 cycles:   28578410 heartbeat IPC: 1.71603 cumulative IPC: 1.99451 (Simulation time: 0 hr 0 min 52 sec) 
Heartbeat CPU  0 instructions:   58000000 cycles:   29161154 heartbeat IPC: 1.71602 cumulative IPC: 1.98895 (Simulation time: 0 hr 0 min 52 sec) 
Heartbeat CPU  0 instructions:   59000000 cycles:   29743895 heartbeat IPC: 1.71603 cumulative IPC: 1.98360 (Simulation time: 0 hr 0 min 53 sec) 
Heartbeat CPU  0 instructions:   60000000 cycles:   30326638 heartbeat IPC: 1.71602 cumulative IPC: 1.97846 (Simulation time: 0 hr 0 min 54 sec) 
Heartbeat CPU  0 instructions:   61000002 cycles:   30909378 heartbeat IPC: 1.71603 cumulative IPC: 1.97351 (Simulation time: 0 hr 0 min 55 sec) 
Heartbeat CPU  0 instructions:   62000002 cycles:   31492119 heartbeat IPC: 1.71603 cumulative IPC: 1.96875 (Simulation time: 0 hr 0 min 56 sec) 
Heartbeat CPU  0 instructions:   63000001 cycles:   32074861 heartbeat IPC: 1.71602 cumulative IPC: 1.96416 (Simulation time: 0 hr 0 min 56 sec) 
Heartbeat CPU  0 instructions:   64000000 cycles:   32657600 heartbeat IPC: 1.71603 cumulative IPC: 1.95973 (Simulation time: 0 hr 0 min 57 sec) 
Heartbeat CPU  0 instructions:   65000003 cycles:   33240343 heartbeat IPC: 1.71603 cumulative IPC: 1.95546 (Simulation time: 0 hr 0 min 58 sec) 
Heartbeat CPU  0 instructions:   66000002 cycles:   33823085 heartbeat IPC: 1.71602 cumulative IPC: 1.95133 (Simulation time: 0 hr 0 min 59 sec) 
Heartbeat CPU  0 instructions:   67000001 cycles:   34405824 heartbeat IPC: 1.71603 cumulative IPC: 1.94734 (Simulation time: 0 hr 1 min 0 sec) 
Heartbeat CPU  0 instructions:   68000000 cycles:   34988567 heartbeat IPC: 1.71602 cumulative IPC: 1.94349 (Simulation time: 0 hr 1 min 1 sec) 
Heartbeat CPU  0 instructions:   69000000 cycles:   35571312 heartbeat IPC: 1.71602 cumulative IPC: 1.93977 (Simulation time: 0 hr 1 min 1 sec) 
Heartbeat CPU  0 instructions:   70000000 cycles:   36097434 heartbeat IPC: 1.90070 cumulative IPC: 1.93920 (Simulation time: 0 hr 1 min 3 sec) 
Heartbeat CPU  0 instructions:   71000003 cycles:   36618084 heartbeat IPC: 1.92068 cumulative IPC: 1.93893 (Simulation time: 0 hr 1 min 4 sec) 
Heartbeat CPU  0 instructions:   72000000 cycles:   37138714 heartbeat IPC: 1.92074 cumulative IPC: 1.93868 (Simulation time: 0 hr 1 min 5 sec) 
Heartbeat CPU  0 instructions:   73000002 cycles:   37659391 heartbeat IPC: 1.92058 cumulative IPC: 1.93843 (Simulation time: 0 hr 1 min 7 sec) 
Heartbeat CPU  0 instructions:   74000002 cycles:   38180021 heartbeat IPC: 1.92075 cumulative IPC: 1.93819 (Simulation time: 0 hr 1 min 8 sec) 
Heartbeat CPU  0 instructions:   75000001 cycles:   38700675 heartbeat IPC: 1.92066 cumulative IPC: 1.93795 (Simulation time: 0 hr 1 min 9 sec) 
Heartbeat CPU  0 instructions:   76000000 cycles:   39221305 heartbeat IPC: 1.92075 cumulative IPC: 1.93772 (Simulation time: 0 hr 1 min 11 sec) 
Heartbeat CPU  0 instructions:   77000001 cycles:   39741982 heartbeat IPC: 1.92058 cumulative IPC: 1.93750 (Simulation time: 0 hr 1 min 12 sec) 
Heartbeat CPU  0 instructions:   78000001 cycles:   40262612 heartbeat IPC: 1.92075 cumulative IPC: 1.93728 (Simulation time: 0 hr 1 min 13 sec) 
Heartbeat CPU  0 instructions:   79000000 cycles:   40783266 heartbeat IPC: 1.92066 cumulative IPC: 1.93707 (Simulation time: 0 hr 1 min 15 sec) 
Heartbeat CPU  0 instructions:   80000000 cycles:   41303896 heartbeat IPC: 1.92075 cumulative IPC: 1.93686 (Simulation time: 0 hr 1 min 16 sec) 
Heartbeat CPU  0 instructions:   81000000 cycles:   41824573 heartbeat IPC: 1.92058 cumulative IPC: 1.93666 (Simulation time: 0 hr 1 min 17 sec) 
Heartbeat CPU  0 instructions:   82000000 cycles:   42345203 heartbeat IPC: 1.92075 cumulative IPC: 1.93646 (Simulation time: 0 hr 1 min 19 sec) 
Heartbeat CPU  0 instructions:   83000003 cycles:   42865855 heartbeat IPC: 1.92067 cumulative IPC: 1.93627 (Simulation time: 0 hr 1 min 20 sec) 
Heartbeat CPU  0 instructions:   84000000 cycles:   43363101 heartbeat IPC: 2.01107 cumulative IPC: 1.93713 (Simulation time: 0 hr 1 min 21 sec) 
Heartbeat CPU  0 instructions:   85000000 cycles:   43783384 heartbeat IPC: 2.37935 cumulative IPC: 1.94138 (Simulation time: 0 hr 1 min 22 sec) 
Heartbeat CPU  0 instructions:   86000001 cycles:   44203671 heartbeat IPC: 2.37933 cumulative IPC: 1.94554 (Simulation time: 0 hr 1 min 23 sec) 
Heartbeat CPU  0 instructions:   87000003 cycles:   44623972 heartbeat IPC: 2.37925 cumulative IPC: 1.94962 (Simulation time: 0 hr 1 min 23 sec) 
Heartbeat CPU  0 instructions:   88000000 cycles:   45044332 heartbeat IPC: 2.37891 cumulative IPC: 1.95363 (Simulation time: 0 hr 1 min 24 sec) 
Heartbeat CPU  0 instructions:   89000001 cycles:   45464612 heartbeat IPC: 2.37937 cumulative IPC: 1.95757 (Simulation time: 0 hr 1 min 25 sec) 
Heartbeat CPU  0 instructions:   90000001 cycles:   45884891 heartbeat IPC: 2.37937 cumulative IPC: 1.96143 (Simulation time: 0 hr 1 min 26 sec) 
Heartbeat CPU  0 instructions:   91000000 cycles:   46305171 heartbeat IPC: 2.37936 cumulative IPC: 1.96522 (Simulation time: 0 hr 1 min 26 sec) 
Heartbeat CPU  0 instructions:   92000000 cycles:   46725478 heartbeat IPC: 2.37921 cumulative IPC: 1.96895 (Simulation time: 0 hr 1 min 27 sec) 
Heartbeat CPU  0 instructions:   93000003 cycles:   47145811 heartbeat IPC: 2.37907 cumulative IPC: 1.97260 (Simulation time: 0 hr 1 min 28 sec) 
Heartbeat CPU  0 instructions:   94000000 cycles:   47566093 heartbeat IPC: 2.37935 cumulative IPC: 1.97620 (Simulation time: 0 hr 1 min 28 sec) 
Heartbeat CPU  0 instructions:   95000002 cycles:   47986376 heartbeat IPC: 2.37935 cumulative IPC: 1.97973 (Simulation time: 0 hr 1 min 29 sec) 
Heartbeat CPU  0 instructions:   96000000 cycles:   48406671 heartbeat IPC: 2.37928 cumulative IPC: 1.98320 (Simulation time: 0 hr 1 min 30 sec) 
Heartbeat CPU  0 instructions:   97000000 cycles:   48827027 heartbeat IPC: 2.37894 cumulative IPC: 1.98660 (Simulation time: 0 hr 1 min 31 sec) 
Heartbeat CPU  0 instructions:   98000000 cycles:   49247317 heartbeat IPC: 2.37931 cumulative IPC: 1.98996 (Simulation time: 0 hr 1 min 31 sec) 
Heartbeat CPU  0 instructions:   99000003 cycles:   49667612 heartbeat IPC: 2.37929 cumulative IPC: 1.99325 (Simulation time: 0 hr 1 min 32 sec) 
Heartbeat CPU  0 instructions:  100000000 cycles:   50087897 heartbeat IPC: 2.37933 cumulative IPC: 1.99649 (Simulation time: 0 hr 1 min 33 sec) 

Warmup complete CPU  0 instructions:  100000001 cycles:   50087899 (Simulation time: 0 hr 1 min 33 sec) 

Heartbeat CPU  0 instructions:  101000003 cycles:   51201104 heartbeat IPC: 0.89831 cumulative IPC: 0.89831 (Simulation time: 0 hr 1 min 34 sec) 
Heartbeat CPU  0 instructions:  102000003 cycles:   52313976 heartbeat IPC: 0.89858 cumulative IPC: 0.89844 (Simulation time: 0 hr 1 min 36 sec) 
Heartbeat CPU  0 instructions:  103000001 cycles:   53425355 heartbeat IPC: 0.89978 cumulative IPC: 0.89889 (Simulation time: 0 hr 1 min 37 sec) 
Heartbeat CPU  0 instructions:  104000000 cycles:   54538931 heartbeat IPC: 0.89801 cumulative IPC: 0.89867 (Simulation time: 0 hr 1 min 38 sec) 
Heartbeat CPU  0 instructions:  105000000 cycles:   55650778 heartbeat IPC: 0.89940 cumulative IPC: 0.89881 (Simulation time: 0 hr 1 min 40 sec) 
Heartbeat CPU  0 instructions:  106000002 cycles:   56764450 heartbeat IPC: 0.89793 cumulative IPC: 0.89867 (Simulation time: 0 hr 1 min 41 sec) 
Heartbeat CPU  0 instructions:  107000000 cycles:   57883100 heartbeat IPC: 0.89393 cumulative IPC: 0.89799 (Simulation time: 0 hr 1 min 42 sec) 
Heartbeat CPU  0 instructions:  108000000 cycles:   59040753 heartbeat IPC: 0.86382 cumulative IPC: 0.89357 (Simulation time: 0 hr 1 min 44 sec) 
Heartbeat CPU  0 instructions:  109000000 cycles:   60284424 heartbeat IPC: 0.80407 cumulative IPC: 0.88265 (Simulation time: 0 hr 1 min 45 sec) 
Heartbeat CPU  0 instructions:  110000001 cycles:   61558806 heartbeat IPC: 0.78469 cumulative IPC: 0.87177 (Simulation time: 0 hr 1 min 47 sec) 
Heartbeat CPU  0 instructions:  111000001 cycles:   62837237 heartbeat IPC: 0.78221 cumulative IPC: 0.86279 (Simulation time: 0 hr 1 min 48 sec) 
Heartbeat CPU  0 instructions:  112000000 cycles:   64111104 heartbeat IPC: 0.78501 cumulative IPC: 0.85572 (Simulation time: 0 hr 1 min 49 sec) 
Heartbeat CPU  0 instructions:  113000002 cycles:   65402974 heartbeat IPC: 0.77407 cumulative IPC: 0.84884 (Simulation time: 0 hr 1 min 51 sec) 
Heartbeat CPU  0 instructions:  114000002 cycles:   66677194 heartbeat IPC: 0.78479 cumulative IPC: 0.84392 (Simulation time: 0 hr 1 min 52 sec) 
Heartbeat CPU  0 instructions:  115000003 cycles:   67955478 heartbeat IPC: 0.78230 cumulative IPC: 0.83951 (Simulation time: 0 hr 1 min 54 sec) 
Heartbeat CPU  0 instructions:  116000000 cycles:   69224758 heartbeat IPC: 0.78785 cumulative IPC: 0.83608 (Simulation time: 0 hr 1 min 55 sec) 
Heartbeat CPU  0 instructions:  117000000 cycles:   70497892 heartbeat IPC: 0.78546 cumulative IPC: 0.83293 (Simulation time: 0 hr 1 min 57 sec) 
Heartbeat CPU  0 instructions:  118000000 cycles:   71804290 heartbeat IPC: 0.76546 cumulative IPC: 0.82887 (Simulation time: 0 hr 1 min 58 sec) 
Heartbeat CPU  0 instructions:  119000001 cycles:   73111465 heartbeat IPC: 0.76501 cumulative IPC: 0.82524 (Simulation time: 0 hr 1 min 59 sec) 
Heartbeat CPU  0 instructions:  120000000 cycles:   74414886 heartbeat IPC: 0.76721 cumulative IPC: 0.82213 (Simulation time: 0 hr 2 min 1 sec) 
Heartbeat CPU  0 instructions:  121000000 cycles:   75684670 heartbeat IPC: 0.78754 cumulative IPC: 0.82042 (Simulation time: 0 hr 2 min 2 sec) 
Heartbeat CPU  0 instructions:  122000002 cycles:   76952782 heartbeat IPC: 0.78858 cumulative IPC: 0.81891 (Simulation time: 0 hr 2 min 4 sec) 
Heartbeat CPU  0 instructions:  123000002 cycles:   78217169 heartbeat IPC: 0.79090 cumulative IPC: 0.81765 (Simulation time: 0 hr 2 min 5 sec) 
Heartbeat CPU  0 instructions:  124000000 cycles:   79496020 heartbeat IPC: 0.78195 cumulative IPC: 0.81610 (Simulation time: 0 hr 2 min 7 sec) 
Heartbeat CPU  0 instructions:  125000003 cycles:   80759253 heartbeat IPC: 0.79162 cumulative IPC: 0.81509 (Simulation time: 0 hr 2 min 8 sec) 
Heartbeat CPU  0 instructions:  126000000 cycles:   82044825 heartbeat IPC: 0.77786 cumulative IPC: 0.81360 (Simulation time: 0 hr 2 min 9 sec) 
Heartbeat CPU  0 instructions:  127000000 cycles:   83313254 heartbeat IPC: 0.78838 cumulative IPC: 0.81263 (Simulation time: 0 hr 2 min 11 sec) 
Heartbeat CPU  0 instructions:  128000000 cycles:   84586547 heartbeat IPC: 0.78537 cumulative IPC: 0.81163 (Simulation time: 0 hr 2 min 12 sec) 
Heartbeat CPU  0 instructions:  129000001 cycles:   85874718 heartbeat IPC: 0.77630 cumulative IPC: 0.81035 (Simulation time: 0 hr 2 min 14 sec) 
Heartbeat CPU  0 instructions:  130000001 cycles:   87148867 heartbeat IPC: 0.78484 cumulative IPC: 0.80948 (Simulation time: 0 hr 2 min 15 sec) 
Heartbeat CPU  0 instructions:  131000000 cycles:   88903670 heartbeat IPC: 0.56986 cumulative IPC: 0.79864 (Simulation time: 0 hr 2 min 17 sec) 
Heartbeat CPU  0 instructions:  132000000 cycles:   91391574 heartbeat IPC: 0.40194 cumulative IPC: 0.77475 (Simulation time: 0 hr 2 min 19 sec) 
Heartbeat CPU  0 instructions:  133000000 cycles:   93877804 heartbeat IPC: 0.40222 cumulative IPC: 0.75360 (Simulation time: 0 hr 2 min 21 sec) 
Heartbeat CPU  0 instructions:  134000000 cycles:   96368042 heartbeat IPC: 0.40157 cumulative IPC: 0.73466 (Simulation time: 0 hr 2 min 23 sec) 
Heartbeat CPU  0 instructions:  135000000 cycles:   98857549 heartbeat IPC: 0.40169 cumulative IPC: 0.71766 (Simulation time: 0 hr 2 min 25 sec) 
Heartbeat CPU  0 instructions:  136000000 cycles:  101344876 heartbeat IPC: 0.40204 cumulative IPC: 0.70234 (Simulation time: 0 hr 2 min 27 sec) 
Heartbeat CPU  0 instructions:  137000000 cycles:  103833210 heartbeat IPC: 0.40188 cumulative IPC: 0.68843 (Simulation time: 0 hr 2 min 29 sec) 
Heartbeat CPU  0 instructions:  138000000 cycles:  106323494 heartbeat IPC: 0.40156 cumulative IPC: 0.67573 (Simulation time: 0 hr 2 min 32 sec) 
Heartbeat CPU  0 instructions:  139000000 cycles:  108810605 heartbeat IPC: 0.40207 cumulative IPC: 0.66414 (Simulation time: 0 hr 2 min 34 sec) 
Heartbeat CPU  0 instructions:  140000000 cycles:  111296658 heartbeat IPC: 0.40224 cumulative IPC: 0.65350 (Simulation time: 0 hr 2 min 36 sec) 
Heartbeat CPU  0 instructions:  141000000 cycles:  113783806 heartbeat IPC: 0.40207 cumulative IPC: 0.64368 (Simulation time: 0 hr 2 min 38 sec) 
Heartbeat CPU  0 instructions:  142000000 cycles:  116271607 heartbeat IPC: 0.40196 cumulative IPC: 0.63460 (Simulation time: 0 hr 2 min 40 sec) 
Heartbeat CPU  0 instructions:  143000000 cycles:  118757783 heartbeat IPC: 0.40222 cumulative IPC: 0.62618 (Simulation time: 0 hr 2 min 42 sec) 
Heartbeat CPU  0 instructions:  144000000 cycles:  121245539 heartbeat IPC: 0.40197 cumulative IPC: 0.61835 (Simulation time: 0 hr 2 min 44 sec) 
Heartbeat CPU  0 instructions:  145000002 cycles:  123490361 heartbeat IPC: 0.44547 cumulative IPC: 0.61306 (Simulation time: 0 hr 2 min 46 sec) 
Heartbeat CPU  0 instructions:  146000000 cycles:  125201108 heartbeat IPC: 0.58454 cumulative IPC: 0.61241 (Simulation time: 0 hr 2 min 48 sec) 
Heartbeat CPU  0 instructions:  147000000 cycles:  126404611 heartbeat IPC: 0.83091 cumulative IPC: 0.61585 (Simulation time: 0 hr 2 min 49 sec) 
Heartbeat CPU  0 instructions:  148000000 cycles:  127515271 heartbeat IPC: 0.90037 cumulative IPC: 0.61994 (Simulation time: 0 hr 2 min 51 sec) 
Heartbeat CPU  0 instructions:  149000000 cycles:  128628826 heartbeat IPC: 0.89802 cumulative IPC: 0.62388 (Simulation time: 0 hr 2 min 52 sec) 
Heartbeat CPU  0 instructions:  150000000 cycles:  129741109 heartbeat IPC: 0.89905 cumulative IPC: 0.62772 (Simulation time: 0 hr 2 min 54 sec) 
Heartbeat CPU  0 instructions:  151000001 cycles:  130854827 heartbeat IPC: 0.89789 cumulative IPC: 0.63145 (Simulation time: 0 hr 2 min 55 sec) 
Heartbeat CPU  0 instructions:  152000000 cycles:  131966466 heartbeat IPC: 0.89957 cumulative IPC: 0.63509 (Simulation time: 0 hr 2 min 56 sec) 
Heartbeat CPU  0 instructions:  153000001 cycles:  133079990 heartbeat IPC: 0.89805 cumulative IPC: 0.63862 (Simulation time: 0 hr 2 min 58 sec) 
Heartbeat CPU  0 instructions:  154000003 cycles:  134192287 heartbeat IPC: 0.89904 cumulative IPC: 0.64206 (Simulation time: 0 hr 2 min 59 sec) 
Heartbeat CPU  0 instructions:  155000001 cycles:  135306482 heartbeat IPC: 0.89751 cumulative IPC: 0.64540 (Simulation time: 0 hr 3 min 0 sec) 
Heartbeat CPU  0 instructions:  156000000 cycles:  136419973 heartbeat IPC: 0.89808 cumulative IPC: 0.64866 (Simulation time: 0 hr 3 min 2 sec) 
Heartbeat CPU  0 instructions:  157000002 cycles:  137533537 heartbeat IPC: 0.89802 cumulative IPC: 0.65183 (Simulation time: 0 hr 3 min 3 sec) 
Heartbeat CPU  0 instructions:  158000000 cycles:  138646629 heartbeat IPC: 0.89840 cumulative IPC: 0.65493 (Simulation time: 0 hr 3 min 5 sec) 
Heartbeat CPU  0 instructions:  159000002 cycles:  139757822 heartbeat IPC: 0.89994 cumulative IPC: 0.65797 (Simulation time: 0 hr 3 min 6 sec) 
Heartbeat CPU  0 instructions:  160000000 cycles:  140871647 heartbeat IPC: 0.89781 cumulative IPC: 0.66091 (Simulation time: 0 hr 3 min 7 sec) 
Heartbeat CPU  0 instructions:  161000000 cycles:  141982775 heartbeat IPC: 0.89999 cumulative IPC: 0.66380 (Simulation time: 0 hr 3 min 9 sec) 
Heartbeat CPU  0 instructions:  162000002 cycles:  143096436 heartbeat IPC: 0.89794 cumulative IPC: 0.66661 (Simulation time: 0 hr 3 min 10 sec) 
Heartbeat CPU  0 instructions:  163000000 cycles:  144208080 heartbeat IPC: 0.89957 cumulative IPC: 0.66936 (Simulation time: 0 hr 3 min 12 sec) 
Heartbeat CPU  0 instructions:  164000000 cycles:  145320953 heartbeat IPC: 0.89858 cumulative IPC: 0.67204 (Simulation time: 0 hr 3 min 13 sec) 
Heartbeat CPU  0 instructions:  165000001 cycles:  146432497 heartbeat IPC: 0.89965 cumulative IPC: 0.67466 (Simulation time: 0 hr 3 min 14 sec) 
Heartbeat CPU  0 instructions:  166000003 cycles:  147545945 heartbeat IPC: 0.89811 cumulative IPC: 0.67721 (Simulation time: 0 hr 3 min 16 sec) 
Heartbeat CPU  0 instructions:  167000001 cycles:  148658041 heartbeat IPC: 0.89920 cumulative IPC: 0.67972 (Simulation time: 0 hr 3 min 17 sec) 
Heartbeat CPU  0 instructions:  168000000 cycles:  149774857 heartbeat IPC: 0.89540 cumulative IPC: 0.68214 (Simulation time: 0 hr 3 min 19 sec) 
Heartbeat CPU  0 instructions:  169000000 cycles:  150941827 heartbeat IPC: 0.85692 cumulative IPC: 0.68416 (Simulation time: 0 hr 3 min 20 sec) 
Heartbeat CPU  0 instructions:  170000003 cycles:  152210266 heartbeat IPC: 0.78837 cumulative IPC: 0.68545 (Simulation time: 0 hr 3 min 22 sec) 
Heartbeat CPU  0 instructions:  171000001 cycles:  153508839 heartbeat IPC: 0.77007 cumulative IPC: 0.68651 (Simulation time: 0 hr 3 min 23 sec) 
Heartbeat CPU  0 instructions:  172000000 cycles:  154806653 heartbeat IPC: 0.77053 cumulative IPC: 0.68756 (Simulation time: 0 hr 3 min 25 sec) 
Heartbeat CPU  0 instructions:  173000001 cycles:  156105619 heartbeat IPC: 0.76984 cumulative IPC: 0.68856 (Simulation time: 0 hr 3 min 26 sec) 
Heartbeat CPU  0 instructions:  174000000 cycles:  157402765 heartbeat IPC: 0.77092 cumulative IPC: 0.68956 (Simulation time: 0 hr 3 min 28 sec) 
Heartbeat CPU  0 instructions:  175000002 cycles:  158702706 heartbeat IPC: 0.76927 cumulative IPC: 0.69051 (Simulation time: 0 hr 3 min 29 sec) 
Heartbeat CPU  0 instructions:  176000000 cycles:  160001628 heartbeat IPC: 0.76987 cumulative IPC: 0.69145 (Simulation time: 0 hr 3 min 31 sec) 
Heartbeat CPU  0 instructions:  177000002 cycles:  161300518 heartbeat IPC: 0.76989 cumulative IPC: 0.69237 (Simulation time: 0 hr 3 min 32 sec) 
Heartbeat CPU  0 instructions:  178000000 cycles:  162600910 heartbeat IPC: 0.76900 cumulative IPC: 0.69325 (Simulation time: 0 hr 3 min 34 sec) 
Heartbeat CPU  0 instructions:  179000003 cycles:  163902100 heartbeat IPC: 0.76853 cumulative IPC: 0.69411 (Simulation time: 0 hr 3 min 35 sec) 
Heartbeat CPU  0 instructions:  180000000 cycles:  165203780 heartbeat IPC: 0.76824 cumulative IPC: 0.69495 (Simulation time: 0 hr 3 min 37 sec) 
Heartbeat CPU  0 instructions:  181000000 cycles:  166503227 heartbeat IPC: 0.76956 cumulative IPC: 0.69578 (Simulation time: 0 hr 3 min 38 sec) 
Heartbeat CPU  0 instructions:  182000001 cycles:  167801739 heartbeat IPC: 0.77011 cumulative IPC: 0.69660 (Simulation time: 0 hr 3 min 40 sec) 
Heartbeat CPU  0 instructions:  183000000 cycles:  169100087 heartbeat IPC: 0.77021 cumulative IPC: 0.69741 (Simulation time: 0 hr 3 min 41 sec) 
Heartbeat CPU  0 instructions:  184000000 cycles:  170398037 heartbeat IPC: 0.77045 cumulative IPC: 0.69820 (Simulation time: 0 hr 3 min 43 sec) 
Heartbeat CPU  0 instructions:  185000001 cycles:  171698109 heartbeat IPC: 0.76919 cumulative IPC: 0.69895 (Simulation time: 0 hr 3 min 44 sec) 
Heartbeat CPU  0 instructions:  186000002 cycles:  172997846 heartbeat IPC: 0.76939 cumulative IPC: 0.69970 (Simulation time: 0 hr 3 min 46 sec) 
Heartbeat CPU  0 instructions:  187000000 cycles:  174296372 heartbeat IPC: 0.77010 cumulative IPC: 0.70044 (Simulation time: 0 hr 3 min 47 sec) 
Heartbeat CPU  0 instructions:  188000000 cycles:  175593736 heartbeat IPC: 0.77079 cumulative IPC: 0.70116 (Simulation time: 0 hr 3 min 49 sec) 
Heartbeat CPU  0 instructions:  189000001 cycles:  176892847 heartbeat IPC: 0.76976 cumulative IPC: 0.70187 (Simulation time: 0 hr 3 min 50 sec) 
Heartbeat CPU  0 instructions:  190000000 cycles:  178192653 heartbeat IPC: 0.76934 cumulative IPC: 0.70255 (Simulation time: 0 hr 3 min 52 sec) 
Heartbeat CPU  0 instructions:  191000000 cycles:  179510176 heartbeat IPC: 0.75900 cumulative IPC: 0.70312 (Simulation time: 0 hr 3 min 53 sec) 
Heartbeat CPU  0 instructions:  192000000 cycles:  181265033 heartbeat IPC: 0.56985 cumulative IPC: 0.70134 (Simulation time: 0 hr 3 min 55 sec) 
Heartbeat CPU  0 instructions:  193000000 cycles:  183763642 heartbeat IPC: 0.40022 cumulative IPC: 0.69571 (Simulation time: 0 hr 3 min 57 sec) 
Heartbeat CPU  0 instructions:  194000000 cycles:  186261836 heartbeat IPC: 0.40029 cumulative IPC: 0.69029 (Simulation time: 0 hr 3 min 59 sec) 
Heartbeat CPU  0 instructions:  195000000 cycles:  188760030 heartbeat IPC: 0.40029 cumulative IPC: 0.68507 (Simulation time: 0 hr 4 min 1 sec) 
Heartbeat CPU  0 instructions:  196000000 cycles:  191258650 heartbeat IPC: 0.40022 cumulative IPC: 0.68003 (Simulation time: 0 hr 4 min 3 sec) 
Heartbeat CPU  0 instructions:  197000000 cycles:  193757229 heartbeat IPC: 0.40023 cumulative IPC: 0.67516 (Simulation time: 0 hr 4 min 5 sec) 
Heartbeat CPU  0 instructions:  198000000 cycles:  196255423 heartbeat IPC: 0.40029 cumulative IPC: 0.67046 (Simulation time: 0 hr 4 min 7 sec) 
Heartbeat CPU  0 instructions:  199000000 cycles:  198753617 heartbeat IPC: 0.40029 cumulative IPC: 0.66592 (Simulation time: 0 hr 4 min 10 sec) 
Heartbeat CPU  0 instructions:  200000000 cycles:  201252015 heartbeat IPC: 0.40026 cumulative IPC: 0.66153 (Simulation time: 0 hr 4 min 12 sec) 
Finished CPU 0 instructions: 100000000 cycles: 151164129 cumulative IPC: 0.66153 (Simulation time: 0 hr 4 min 12 sec) 

ChampSim completed all CPUs

[ROI Statistics]
Core_0_instructions 100000000
Core_0_cycles 151164129
Core_0_IPC 0.66153

Core_0_branch_prediction_accuracy 99.58952
Core_0_branch_MPKI 0.70683
Core_0_average_ROB_occupancy_at_mispredict 218.78955

Core_0_L1D_total_access 20996043
Core_0_L1D_total_hit 18419806
Core_0_L1D_total_miss 2576237
Core_0_L1D_loads 10217564
Core_0_L1D_load_hit 8113506
Core_0_L1D_load_miss 2104058
Core_0_L1D_RFOs 3492975
Core_0_L1D_RFO_hit 3492955
Core_0_L1D_RFO_miss 20
Core_0_L1D_prefetches 7285504
Core_0_L1D_prefetch_hit 6813345
Core_0_L1D_prefetch_miss 472159
Core_0_L1D_writebacks 0
Core_0_L1D_writeback_hit 0
Core_0_L1D_writeback_miss 0
Core_0_L1D_prefetch_requested 41973508
Core_0_L1D_prefetch_issued 41701301
Core_0_L1D_prefetch_useful 2919604
Core_0_L1D_prefetch_useless 30
Core_0_L1D_prefetch_late 1926432
Core_0_L1D_average_miss_latency 93541488.73192

Core_0_L1I_total_access 32531400
Core_0_L1I_total_hit 32531399
Core_0_L1I_total_miss 1
Core_0_L1I_loads 32531400
Core_0_L1I_load_hit 32531399
Core_0_L1I_load_miss 1
Core_0_L1I_RFOs 0
Core_0_L1I_RFO_hit 0
Core_0_L1I_RFO_miss 0
Core_0_L1I_prefetches 0
Core_0_L1I_prefetch_hit 0
Core_0_L1I_prefetch_miss 0
Core_0_L1I_writebacks 0
Core_0_L1I_writeback_hit 0
Core_0_L1I_writeback_miss 0
Core_0_L1I_prefetch_requested 0
Core_0_L1I_prefetch_issued 0
Core_0_L1I_prefetch_useful 0
Core_0_L1I_prefetch_useless 0
Core_0_L1I_prefetch_late 0
Core_0_L1I_average_miss_latency 284.00000

Core_0_L2C_total_access 3689969
Core_0_L2C_total_hit 1113720
Core_0_L2C_total_miss 2576249
Core_0_L2C_loads 177630
Core_0_L2C_load_hit 0
Core_0_L2C_load_miss 177630
Core_0_L2C_RFOs 20
Core_0_L2C_RFO_hit 0
Core_0_L2C_RFO_miss 20
Core_0_L2C_prefetches 2562173
Core_0_L2C_prefetch_hit 163574
Core_0_L2C_prefetch_miss 2398599
Core_0_L2C_writebacks 950146
Core_0_L2C_writeback_hit 950146
Core_0_L2C_writeback_miss 0
Core_0_L2C_prefetch_requested 4371615
Core_0_L2C_prefetch_issued 4300922
Core_0_L2C_prefetch_useful 163848
Core_0_L2C_prefetch_useless 4839066
Core_0_L2C_prefetch_late 26936
Core_0_L2C_average_miss_latency 163.84015

Core_0_LLC_total_access 3959760
Core_0_LLC_total_hit 1383496
Core_0_LLC_total_miss 2576264
Core_0_LLC_loads 150696
Core_0_LLC_load_hit 192
Core_0_LLC_load_miss 150504
Core_0_LLC_RFOs 20
Core_0_LLC_RFO_hit 0
Core_0_LLC_RFO_miss 20
Core_0_LLC_prefetches 2866341
Core_0_LLC_prefetch_hit 440601
Core_0_LLC_prefetch_miss 2425740
Core_0_LLC_writebacks 942703
Core_0_LLC_writeback_hit 942703
Core_0_LLC_writeback_miss 0
Core_0_LLC_prefetch_requested 4768553
Core_0_LLC_prefetch_issued 4690995
Core_0_LLC_prefetch_useful 192
Core_0_LLC_prefetch_useless 5008254
Core_0_LLC_prefetch_late 13460
Core_0_LLC_average_miss_latency 163.99722

Core_0_major_page_fault 0
Core_0_minor_page_fault 8199

CPU 0 L1D next line prefetcher final stats
CPU 0 L2C next line prefetcher final stats
LLC Next Line Prefetcher Final Stats: none
Channel_0_RQ_row_buffer_hit 1378139
Channel_0_RQ_row_buffer_miss 1198127
Channel_0_WQ_row_buffer_hit 290380
Channel_0_WQ_row_buffer_miss 628471
Channel_0_WQ_full 0
Channel_0_dbus_congested 1880168

avg_congested_cycle 10
