*************************************************
   ChampSim Multicore Out-of-Order Simulator
   Last compiled: Dec 21 2023 19:40:06
*************************************************

trace_0 ./test_trace/462.libquantum-714B.champsimtrace.xz
CPU 0 L2C IP-based stride prefetcher
Initialize SRRIP state
warmup_instructions 100000000
simulation_instructions 100000000
champsim_seed 222

num_cpus 1
cpu_freq 4000
dram_io_freq 2400
page_size 4096
block_size 64
max_read_per_cycle 8
max_fill_per_cycle 1
dram_channels 1
dram_ranks 1
dram_banks 8
dram_rows 65536
dram_columns 128
dram_row_size 8
dram_size 4096
dram_pages 1048576

fetch_width 6
decode_width 6
exec_width 4
lq_width 2
sq_width 2
retire_width 4
scheduler_size 128
branch_mispredict_penalty 20
rob_size 256
lq_size 72
sq_size 56
num_instr_destinations_sparc 4
num_instr_destinations 2
num_instr_sources 4

itlb_set 16
itlb_way 8
itlb_rq_size 16
itlb_wq_size 16
itlb_pq_size 0
itlb_mshr_size 8
itlb_latency 1

dtlb_set 16
dtlb_way 4
dtlb_rq_size 16
dtlb_wq_size 16
dtlb_pq_size 0
dtlb_mshr_size 8
dtlb_latency 1

stlb_set 128
stlb_way 12
stlb_rq_size 32
stlb_wq_size 32
stlb_pq_size 0
stlb_mshr_size 16
stlb_latency 8

l1i_size 32
l1i_set 64
l1i_way 8
l1i_rq_size 64
l1i_wq_size 64
l1i_pq_size 8
l1i_mshr_size 8
l1i_latency 1

l1d_size 32
l1d_set 64
l1d_way 8
l1d_rq_size 64
l1d_wq_size 64
l1d_pq_size 8
l1d_mshr_size 16
l1d_latency 4

l2c_size 512
l2c_set 1024
l2c_way 8
l2c_rq_size 32
l2c_wq_size 32
l2c_pq_size 16
l2c_mshr_size 32
l2c_latency 10

llc_size 2048
llc_set 2048
llc_way 16
llc_rq_size 32
llc_wq_size 32
llc_pq_size 32
llc_mshr_size 64
llc_latency 20

dram_channel_width 8
dram_wq_size 64
dram_rq_size 64
tRP 15
tRCD 15
tCAS 12.5
dram_dbus_turn_around_time 30
dram_write_high_wm 56
dram_write_low_wm 48
min_dram_writes_per_switch 16
dram_mtps 2400
dram_dbus_return_time 13


Heartbeat CPU  0 instructions:    1000000 cycles:     548237 heartbeat IPC: 1.82403 cumulative IPC: 1.82403 (Simulation time: 0 hr 0 min 0 sec) 
Heartbeat CPU  0 instructions:    2000003 cycles:    1096582 heartbeat IPC: 1.82367 cumulative IPC: 1.82385 (Simulation time: 0 hr 0 min 1 sec) 
Heartbeat CPU  0 instructions:    3000002 cycles:    1645091 heartbeat IPC: 1.82312 cumulative IPC: 1.82361 (Simulation time: 0 hr 0 min 2 sec) 
Heartbeat CPU  0 instructions:    4000000 cycles:    2193740 heartbeat IPC: 1.82266 cumulative IPC: 1.82337 (Simulation time: 0 hr 0 min 3 sec) 
Heartbeat CPU  0 instructions:    5000000 cycles:    2742363 heartbeat IPC: 1.82275 cumulative IPC: 1.82325 (Simulation time: 0 hr 0 min 4 sec) 
Heartbeat CPU  0 instructions:    6000000 cycles:    3290819 heartbeat IPC: 1.82330 cumulative IPC: 1.82325 (Simulation time: 0 hr 0 min 5 sec) 
Heartbeat CPU  0 instructions:    7000000 cycles:    3839330 heartbeat IPC: 1.82312 cumulative IPC: 1.82323 (Simulation time: 0 hr 0 min 5 sec) 
Heartbeat CPU  0 instructions:    8000000 cycles:    4387898 heartbeat IPC: 1.82293 cumulative IPC: 1.82320 (Simulation time: 0 hr 0 min 6 sec) 
Heartbeat CPU  0 instructions:    9000002 cycles:    4916736 heartbeat IPC: 1.89094 cumulative IPC: 1.83048 (Simulation time: 0 hr 0 min 8 sec) 
Heartbeat CPU  0 instructions:   10000002 cycles:    5439045 heartbeat IPC: 1.91458 cumulative IPC: 1.83856 (Simulation time: 0 hr 0 min 9 sec) 
Heartbeat CPU  0 instructions:   11000001 cycles:    5961374 heartbeat IPC: 1.91450 cumulative IPC: 1.84521 (Simulation time: 0 hr 0 min 10 sec) 
Heartbeat CPU  0 instructions:   12000000 cycles:    6483686 heartbeat IPC: 1.91456 cumulative IPC: 1.85080 (Simulation time: 0 hr 0 min 12 sec) 
Heartbeat CPU  0 instructions:   13000000 cycles:    7006044 heartbeat IPC: 1.91440 cumulative IPC: 1.85554 (Simulation time: 0 hr 0 min 13 sec) 
Heartbeat CPU  0 instructions:   14000000 cycles:    7528354 heartbeat IPC: 1.91457 cumulative IPC: 1.85964 (Simulation time: 0 hr 0 min 14 sec) 
Heartbeat CPU  0 instructions:   15000003 cycles:    8050694 heartbeat IPC: 1.91447 cumulative IPC: 1.86319 (Simulation time: 0 hr 0 min 16 sec) 
Heartbeat CPU  0 instructions:   16000000 cycles:    8573016 heartbeat IPC: 1.91452 cumulative IPC: 1.86632 (Simulation time: 0 hr 0 min 17 sec) 
Heartbeat CPU  0 instructions:   17000000 cycles:    9095373 heartbeat IPC: 1.91440 cumulative IPC: 1.86908 (Simulation time: 0 hr 0 min 19 sec) 
Heartbeat CPU  0 instructions:   18000000 cycles:    9617681 heartbeat IPC: 1.91458 cumulative IPC: 1.87155 (Simulation time: 0 hr 0 min 20 sec) 
Heartbeat CPU  0 instructions:   19000003 cycles:   10140019 heartbeat IPC: 1.91447 cumulative IPC: 1.87376 (Simulation time: 0 hr 0 min 21 sec) 
Heartbeat CPU  0 instructions:   20000000 cycles:   10662328 heartbeat IPC: 1.91457 cumulative IPC: 1.87576 (Simulation time: 0 hr 0 min 23 sec) 
Heartbeat CPU  0 instructions:   21000000 cycles:   11184684 heartbeat IPC: 1.91440 cumulative IPC: 1.87757 (Simulation time: 0 hr 0 min 24 sec) 
Heartbeat CPU  0 instructions:   22000000 cycles:   11706994 heartbeat IPC: 1.91457 cumulative IPC: 1.87922 (Simulation time: 0 hr 0 min 25 sec) 
Heartbeat CPU  0 instructions:   23000000 cycles:   12220942 heartbeat IPC: 1.94572 cumulative IPC: 1.88202 (Simulation time: 0 hr 0 min 27 sec) 
Heartbeat CPU  0 instructions:   24000000 cycles:   12640353 heartbeat IPC: 2.38430 cumulative IPC: 1.89868 (Simulation time: 0 hr 0 min 27 sec) 
Heartbeat CPU  0 instructions:   25000000 cycles:   13059757 heartbeat IPC: 2.38434 cumulative IPC: 1.91428 (Simulation time: 0 hr 0 min 28 sec) 
Heartbeat CPU  0 instructions:   26000000 cycles:   13479178 heartbeat IPC: 2.38424 cumulative IPC: 1.92890 (Simulation time: 0 hr 0 min 29 sec) 
Heartbeat CPU  0 instructions:   27000000 cycles:   13898612 heartbeat IPC: 2.38417 cumulative IPC: 1.94264 (Simulation time: 0 hr 0 min 30 sec) 
Heartbeat CPU  0 instructions:   28000000 cycles:   14318047 heartbeat IPC: 2.38416 cumulative IPC: 1.95557 (Simulation time: 0 hr 0 min 30 sec) 
Heartbeat CPU  0 instructions:   29000001 cycles:   14737454 heartbeat IPC: 2.38432 cumulative IPC: 1.96778 (Simulation time: 0 hr 0 min 31 sec) 
Heartbeat CPU  0 instructions:   30000003 cycles:   15156857 heartbeat IPC: 2.38435 cumulative IPC: 1.97930 (Simulation time: 0 hr 0 min 32 sec) 
Heartbeat CPU  0 instructions:   31000001 cycles:   15576282 heartbeat IPC: 2.38421 cumulative IPC: 1.99021 (Simulation time: 0 hr 0 min 33 sec) 
Heartbeat CPU  0 instructions:   32000000 cycles:   15995739 heartbeat IPC: 2.38403 cumulative IPC: 2.00053 (Simulation time: 0 hr 0 min 33 sec) 
Heartbeat CPU  0 instructions:   33000003 cycles:   16415139 heartbeat IPC: 2.38437 cumulative IPC: 2.01034 (Simulation time: 0 hr 0 min 34 sec) 
Heartbeat CPU  0 instructions:   34000000 cycles:   16834533 heartbeat IPC: 2.38439 cumulative IPC: 2.01966 (Simulation time: 0 hr 0 min 35 sec) 
Heartbeat CPU  0 instructions:   35000002 cycles:   17253949 heartbeat IPC: 2.38427 cumulative IPC: 2.02852 (Simulation time: 0 hr 0 min 36 sec) 
Heartbeat CPU  0 instructions:   36000000 cycles:   17673390 heartbeat IPC: 2.38412 cumulative IPC: 2.03696 (Simulation time: 0 hr 0 min 36 sec) 
Heartbeat CPU  0 instructions:   37000000 cycles:   18092835 heartbeat IPC: 2.38410 cumulative IPC: 2.04501 (Simulation time: 0 hr 0 min 37 sec) 
Heartbeat CPU  0 instructions:   38000002 cycles:   18512235 heartbeat IPC: 2.38436 cumulative IPC: 2.05270 (Simulation time: 0 hr 0 min 38 sec) 
Heartbeat CPU  0 instructions:   39000000 cycles:   18931646 heartbeat IPC: 2.38429 cumulative IPC: 2.06004 (Simulation time: 0 hr 0 min 39 sec) 
Heartbeat CPU  0 instructions:   40000000 cycles:   19351063 heartbeat IPC: 2.38426 cumulative IPC: 2.06707 (Simulation time: 0 hr 0 min 40 sec) 
Heartbeat CPU  0 instructions:   41000001 cycles:   19770528 heartbeat IPC: 2.38399 cumulative IPC: 2.07379 (Simulation time: 0 hr 0 min 40 sec) 
Heartbeat CPU  0 instructions:   42000003 cycles:   20189935 heartbeat IPC: 2.38432 cumulative IPC: 2.08024 (Simulation time: 0 hr 0 min 41 sec) 
Heartbeat CPU  0 instructions:   43000001 cycles:   20609337 heartbeat IPC: 2.38434 cumulative IPC: 2.08643 (Simulation time: 0 hr 0 min 42 sec) 
Heartbeat CPU  0 instructions:   44000000 cycles:   21028737 heartbeat IPC: 2.38436 cumulative IPC: 2.09237 (Simulation time: 0 hr 0 min 43 sec) 
Heartbeat CPU  0 instructions:   45000001 cycles:   21448171 heartbeat IPC: 2.38417 cumulative IPC: 2.09808 (Simulation time: 0 hr 0 min 43 sec) 
Heartbeat CPU  0 instructions:   46000001 cycles:   21867615 heartbeat IPC: 2.38411 cumulative IPC: 2.10357 (Simulation time: 0 hr 0 min 44 sec) 
Heartbeat CPU  0 instructions:   47000000 cycles:   22407547 heartbeat IPC: 1.85208 cumulative IPC: 2.09751 (Simulation time: 0 hr 0 min 45 sec) 
Heartbeat CPU  0 instructions:   48000000 cycles:   22949796 heartbeat IPC: 1.84417 cumulative IPC: 2.09152 (Simulation time: 0 hr 0 min 46 sec) 
Heartbeat CPU  0 instructions:   49000000 cycles:   23492055 heartbeat IPC: 1.84414 cumulative IPC: 2.08581 (Simulation time: 0 hr 0 min 47 sec) 
Heartbeat CPU  0 instructions:   50000003 cycles:   24034313 heartbeat IPC: 1.84415 cumulative IPC: 2.08036 (Simulation time: 0 hr 0 min 47 sec) 
Heartbeat CPU  0 instructions:   51000002 cycles:   24576559 heartbeat IPC: 1.84418 cumulative IPC: 2.07515 (Simulation time: 0 hr 0 min 48 sec) 
Heartbeat CPU  0 instructions:   52000000 cycles:   25118809 heartbeat IPC: 1.84416 cumulative IPC: 2.07016 (Simulation time: 0 hr 0 min 49 sec) 
Heartbeat CPU  0 instructions:   53000000 cycles:   25661051 heartbeat IPC: 1.84420 cumulative IPC: 2.06539 (Simulation time: 0 hr 0 min 50 sec) 
Heartbeat CPU  0 instructions:   54000003 cycles:   26203310 heartbeat IPC: 1.84414 cumulative IPC: 2.06081 (Simulation time: 0 hr 0 min 51 sec) 
Heartbeat CPU  0 instructions:   55000002 cycles:   26745556 heartbeat IPC: 1.84418 cumulative IPC: 2.05642 (Simulation time: 0 hr 0 min 51 sec) 
Heartbeat CPU  0 instructions:   56000000 cycles:   27287801 heartbeat IPC: 1.84418 cumulative IPC: 2.05220 (Simulation time: 0 hr 0 min 52 sec) 
Heartbeat CPU  0 instructions:   57000000 cycles:   27830040 heartbeat IPC: 1.84421 cumulative IPC: 2.04815 (Simulation time: 0 hr 0 min 53 sec) 
Heartbeat CPU  0 instructions:   58000000 cycles:   28372275 heartbeat IPC: 1.84422 cumulative IPC: 2.04425 (Simulation time: 0 hr 0 min 54 sec) 
Heartbeat CPU  0 instructions:   59000000 cycles:   28914536 heartbeat IPC: 1.84413 cumulative IPC: 2.04050 (Simulation time: 0 hr 0 min 55 sec) 
Heartbeat CPU  0 instructions:   60000000 cycles:   29456781 heartbeat IPC: 1.84418 cumulative IPC: 2.03688 (Simulation time: 0 hr 0 min 55 sec) 
Heartbeat CPU  0 instructions:   61000003 cycles:   29999032 heartbeat IPC: 1.84417 cumulative IPC: 2.03340 (Simulation time: 0 hr 0 min 56 sec) 
Heartbeat CPU  0 instructions:   62000002 cycles:   30541281 heartbeat IPC: 1.84417 cumulative IPC: 2.03004 (Simulation time: 0 hr 0 min 57 sec) 
Heartbeat CPU  0 instructions:   63000001 cycles:   31083524 heartbeat IPC: 1.84419 cumulative IPC: 2.02680 (Simulation time: 0 hr 0 min 58 sec) 
Heartbeat CPU  0 instructions:   64000000 cycles:   31625769 heartbeat IPC: 1.84418 cumulative IPC: 2.02367 (Simulation time: 0 hr 0 min 59 sec) 
Heartbeat CPU  0 instructions:   65000003 cycles:   32168031 heartbeat IPC: 1.84413 cumulative IPC: 2.02064 (Simulation time: 0 hr 1 min 0 sec) 
Heartbeat CPU  0 instructions:   66000002 cycles:   32710280 heartbeat IPC: 1.84417 cumulative IPC: 2.01771 (Simulation time: 0 hr 1 min 0 sec) 
Heartbeat CPU  0 instructions:   67000001 cycles:   33252533 heartbeat IPC: 1.84416 cumulative IPC: 2.01488 (Simulation time: 0 hr 1 min 1 sec) 
Heartbeat CPU  0 instructions:   68000000 cycles:   33794781 heartbeat IPC: 1.84417 cumulative IPC: 2.01215 (Simulation time: 0 hr 1 min 2 sec) 
Heartbeat CPU  0 instructions:   69000000 cycles:   34337036 heartbeat IPC: 1.84415 cumulative IPC: 2.00949 (Simulation time: 0 hr 1 min 3 sec) 
Heartbeat CPU  0 instructions:   70000000 cycles:   34859123 heartbeat IPC: 1.91539 cumulative IPC: 2.00808 (Simulation time: 0 hr 1 min 4 sec) 
Heartbeat CPU  0 instructions:   71000003 cycles:   35379205 heartbeat IPC: 1.92278 cumulative IPC: 2.00683 (Simulation time: 0 hr 1 min 6 sec) 
Heartbeat CPU  0 instructions:   72000000 cycles:   35899271 heartbeat IPC: 1.92283 cumulative IPC: 2.00561 (Simulation time: 0 hr 1 min 7 sec) 
Heartbeat CPU  0 instructions:   73000002 cycles:   36419376 heartbeat IPC: 1.92269 cumulative IPC: 2.00443 (Simulation time: 0 hr 1 min 8 sec) 
Heartbeat CPU  0 instructions:   74000002 cycles:   36939434 heartbeat IPC: 1.92286 cumulative IPC: 2.00328 (Simulation time: 0 hr 1 min 10 sec) 
Heartbeat CPU  0 instructions:   75000001 cycles:   37459516 heartbeat IPC: 1.92277 cumulative IPC: 2.00216 (Simulation time: 0 hr 1 min 11 sec) 
Heartbeat CPU  0 instructions:   76000000 cycles:   37979558 heartbeat IPC: 1.92292 cumulative IPC: 2.00108 (Simulation time: 0 hr 1 min 12 sec) 
Heartbeat CPU  0 instructions:   77000001 cycles:   38499649 heartbeat IPC: 1.92274 cumulative IPC: 2.00002 (Simulation time: 0 hr 1 min 14 sec) 
Heartbeat CPU  0 instructions:   78000001 cycles:   39019709 heartbeat IPC: 1.92286 cumulative IPC: 1.99899 (Simulation time: 0 hr 1 min 15 sec) 
Heartbeat CPU  0 instructions:   79000000 cycles:   39539797 heartbeat IPC: 1.92275 cumulative IPC: 1.99799 (Simulation time: 0 hr 1 min 17 sec) 
Heartbeat CPU  0 instructions:   80000000 cycles:   40059845 heartbeat IPC: 1.92290 cumulative IPC: 1.99701 (Simulation time: 0 hr 1 min 18 sec) 
Heartbeat CPU  0 instructions:   81000000 cycles:   40579956 heartbeat IPC: 1.92267 cumulative IPC: 1.99606 (Simulation time: 0 hr 1 min 19 sec) 
Heartbeat CPU  0 instructions:   82000000 cycles:   41100018 heartbeat IPC: 1.92285 cumulative IPC: 1.99513 (Simulation time: 0 hr 1 min 21 sec) 
Heartbeat CPU  0 instructions:   83000003 cycles:   41620096 heartbeat IPC: 1.92279 cumulative IPC: 1.99423 (Simulation time: 0 hr 1 min 22 sec) 
Heartbeat CPU  0 instructions:   84000000 cycles:   42116711 heartbeat IPC: 2.01363 cumulative IPC: 1.99446 (Simulation time: 0 hr 1 min 23 sec) 
Heartbeat CPU  0 instructions:   85000000 cycles:   42536115 heartbeat IPC: 2.38434 cumulative IPC: 1.99830 (Simulation time: 0 hr 1 min 24 sec) 
Heartbeat CPU  0 instructions:   86000001 cycles:   42955521 heartbeat IPC: 2.38433 cumulative IPC: 2.00207 (Simulation time: 0 hr 1 min 25 sec) 
Heartbeat CPU  0 instructions:   87000003 cycles:   43374935 heartbeat IPC: 2.38428 cumulative IPC: 2.00577 (Simulation time: 0 hr 1 min 26 sec) 
Heartbeat CPU  0 instructions:   88000000 cycles:   43794407 heartbeat IPC: 2.38394 cumulative IPC: 2.00939 (Simulation time: 0 hr 1 min 26 sec) 
Heartbeat CPU  0 instructions:   89000001 cycles:   44213815 heartbeat IPC: 2.38432 cumulative IPC: 2.01295 (Simulation time: 0 hr 1 min 27 sec) 
Heartbeat CPU  0 instructions:   90000001 cycles:   44633216 heartbeat IPC: 2.38435 cumulative IPC: 2.01644 (Simulation time: 0 hr 1 min 28 sec) 
Heartbeat CPU  0 instructions:   91000000 cycles:   45052612 heartbeat IPC: 2.38438 cumulative IPC: 2.01986 (Simulation time: 0 hr 1 min 29 sec) 
Heartbeat CPU  0 instructions:   92000000 cycles:   45472047 heartbeat IPC: 2.38416 cumulative IPC: 2.02322 (Simulation time: 0 hr 1 min 30 sec) 
Heartbeat CPU  0 instructions:   93000003 cycles:   45891499 heartbeat IPC: 2.38407 cumulative IPC: 2.02652 (Simulation time: 0 hr 1 min 30 sec) 
Heartbeat CPU  0 instructions:   94000000 cycles:   46310900 heartbeat IPC: 2.38435 cumulative IPC: 2.02976 (Simulation time: 0 hr 1 min 31 sec) 
Heartbeat CPU  0 instructions:   95000002 cycles:   46730298 heartbeat IPC: 2.38437 cumulative IPC: 2.03294 (Simulation time: 0 hr 1 min 32 sec) 
Heartbeat CPU  0 instructions:   96000000 cycles:   47149717 heartbeat IPC: 2.38425 cumulative IPC: 2.03607 (Simulation time: 0 hr 1 min 33 sec) 
Heartbeat CPU  0 instructions:   97000000 cycles:   47569185 heartbeat IPC: 2.38397 cumulative IPC: 2.03914 (Simulation time: 0 hr 1 min 33 sec) 
Heartbeat CPU  0 instructions:   98000000 cycles:   47988597 heartbeat IPC: 2.38429 cumulative IPC: 2.04215 (Simulation time: 0 hr 1 min 34 sec) 
Heartbeat CPU  0 instructions:   99000003 cycles:   48408003 heartbeat IPC: 2.38433 cumulative IPC: 2.04512 (Simulation time: 0 hr 1 min 35 sec) 
Heartbeat CPU  0 instructions:  100000000 cycles:   48827407 heartbeat IPC: 2.38433 cumulative IPC: 2.04803 (Simulation time: 0 hr 1 min 36 sec) 

Warmup complete CPU  0 instructions:  100000001 cycles:   48827409 (Simulation time: 0 hr 1 min 36 sec) 

Heartbeat CPU  0 instructions:  101000003 cycles:   49887035 heartbeat IPC: 0.94373 cumulative IPC: 0.94373 (Simulation time: 0 hr 1 min 37 sec) 
Heartbeat CPU  0 instructions:  102000003 cycles:   50965101 heartbeat IPC: 0.92759 cumulative IPC: 0.93559 (Simulation time: 0 hr 1 min 38 sec) 
Heartbeat CPU  0 instructions:  103000001 cycles:   52027225 heartbeat IPC: 0.94151 cumulative IPC: 0.93755 (Simulation time: 0 hr 1 min 40 sec) 
Heartbeat CPU  0 instructions:  104000000 cycles:   53099267 heartbeat IPC: 0.93280 cumulative IPC: 0.93636 (Simulation time: 0 hr 1 min 41 sec) 
Heartbeat CPU  0 instructions:  105000000 cycles:   54173891 heartbeat IPC: 0.93056 cumulative IPC: 0.93519 (Simulation time: 0 hr 1 min 43 sec) 
Heartbeat CPU  0 instructions:  106000002 cycles:   55243498 heartbeat IPC: 0.93492 cumulative IPC: 0.93515 (Simulation time: 0 hr 1 min 44 sec) 
Heartbeat CPU  0 instructions:  107000000 cycles:   56332359 heartbeat IPC: 0.91839 cumulative IPC: 0.93272 (Simulation time: 0 hr 1 min 45 sec) 
Heartbeat CPU  0 instructions:  108000000 cycles:   57397237 heartbeat IPC: 0.93907 cumulative IPC: 0.93351 (Simulation time: 0 hr 1 min 47 sec) 
Heartbeat CPU  0 instructions:  109000000 cycles:   58502620 heartbeat IPC: 0.90466 cumulative IPC: 0.93021 (Simulation time: 0 hr 1 min 48 sec) 
Heartbeat CPU  0 instructions:  110000001 cycles:   59735599 heartbeat IPC: 0.81104 cumulative IPC: 0.91674 (Simulation time: 0 hr 1 min 50 sec) 
Heartbeat CPU  0 instructions:  111000001 cycles:   60947725 heartbeat IPC: 0.82500 cumulative IPC: 0.90757 (Simulation time: 0 hr 1 min 51 sec) 
Heartbeat CPU  0 instructions:  112000000 cycles:   62161224 heartbeat IPC: 0.82406 cumulative IPC: 0.89997 (Simulation time: 0 hr 1 min 53 sec) 
Heartbeat CPU  0 instructions:  113000002 cycles:   63393692 heartbeat IPC: 0.81138 cumulative IPC: 0.89247 (Simulation time: 0 hr 1 min 54 sec) 
Heartbeat CPU  0 instructions:  114000002 cycles:   64618784 heartbeat IPC: 0.81627 cumulative IPC: 0.88656 (Simulation time: 0 hr 1 min 55 sec) 
Heartbeat CPU  0 instructions:  115000003 cycles:   65840202 heartbeat IPC: 0.81872 cumulative IPC: 0.88169 (Simulation time: 0 hr 1 min 57 sec) 
Heartbeat CPU  0 instructions:  116000000 cycles:   67072992 heartbeat IPC: 0.81117 cumulative IPC: 0.87692 (Simulation time: 0 hr 1 min 58 sec) 
Heartbeat CPU  0 instructions:  117000000 cycles:   68292799 heartbeat IPC: 0.81980 cumulative IPC: 0.87334 (Simulation time: 0 hr 2 min 0 sec) 
Heartbeat CPU  0 instructions:  118000000 cycles:   69525949 heartbeat IPC: 0.81093 cumulative IPC: 0.86963 (Simulation time: 0 hr 2 min 1 sec) 
Heartbeat CPU  0 instructions:  119000001 cycles:   70746621 heartbeat IPC: 0.81922 cumulative IPC: 0.86682 (Simulation time: 0 hr 2 min 3 sec) 
Heartbeat CPU  0 instructions:  120000000 cycles:   71974946 heartbeat IPC: 0.81412 cumulative IPC: 0.86402 (Simulation time: 0 hr 2 min 4 sec) 
Heartbeat CPU  0 instructions:  121000000 cycles:   73209184 heartbeat IPC: 0.81022 cumulative IPC: 0.86130 (Simulation time: 0 hr 2 min 6 sec) 
Heartbeat CPU  0 instructions:  122000002 cycles:   74440851 heartbeat IPC: 0.81191 cumulative IPC: 0.85892 (Simulation time: 0 hr 2 min 7 sec) 
Heartbeat CPU  0 instructions:  123000002 cycles:   75673193 heartbeat IPC: 0.81146 cumulative IPC: 0.85675 (Simulation time: 0 hr 2 min 9 sec) 
Heartbeat CPU  0 instructions:  124000000 cycles:   76907241 heartbeat IPC: 0.81034 cumulative IPC: 0.85471 (Simulation time: 0 hr 2 min 10 sec) 
Heartbeat CPU  0 instructions:  125000003 cycles:   78140498 heartbeat IPC: 0.81086 cumulative IPC: 0.85286 (Simulation time: 0 hr 2 min 11 sec) 
Heartbeat CPU  0 instructions:  126000000 cycles:   79371857 heartbeat IPC: 0.81211 cumulative IPC: 0.85122 (Simulation time: 0 hr 2 min 13 sec) 
Heartbeat CPU  0 instructions:  127000000 cycles:   80605790 heartbeat IPC: 0.81042 cumulative IPC: 0.84963 (Simulation time: 0 hr 2 min 14 sec) 
Heartbeat CPU  0 instructions:  128000000 cycles:   81836840 heartbeat IPC: 0.81231 cumulative IPC: 0.84824 (Simulation time: 0 hr 2 min 16 sec) 
Heartbeat CPU  0 instructions:  129000001 cycles:   83071154 heartbeat IPC: 0.81017 cumulative IPC: 0.84687 (Simulation time: 0 hr 2 min 17 sec) 
Heartbeat CPU  0 instructions:  130000001 cycles:   84302969 heartbeat IPC: 0.81181 cumulative IPC: 0.84565 (Simulation time: 0 hr 2 min 19 sec) 
Heartbeat CPU  0 instructions:  131000000 cycles:   85836334 heartbeat IPC: 0.65216 cumulative IPC: 0.83764 (Simulation time: 0 hr 2 min 21 sec) 
Heartbeat CPU  0 instructions:  132000000 cycles:   88228535 heartbeat IPC: 0.41803 cumulative IPC: 0.81216 (Simulation time: 0 hr 2 min 23 sec) 
Heartbeat CPU  0 instructions:  133000000 cycles:   90599990 heartbeat IPC: 0.42168 cumulative IPC: 0.78999 (Simulation time: 0 hr 2 min 25 sec) 
Heartbeat CPU  0 instructions:  134000000 cycles:   92981668 heartbeat IPC: 0.41987 cumulative IPC: 0.77003 (Simulation time: 0 hr 2 min 27 sec) 
Heartbeat CPU  0 instructions:  135000000 cycles:   95351610 heartbeat IPC: 0.42195 cumulative IPC: 0.75230 (Simulation time: 0 hr 2 min 29 sec) 
Heartbeat CPU  0 instructions:  136000000 cycles:   97717754 heartbeat IPC: 0.42263 cumulative IPC: 0.73634 (Simulation time: 0 hr 2 min 31 sec) 
Heartbeat CPU  0 instructions:  137000000 cycles:  100103359 heartbeat IPC: 0.41918 cumulative IPC: 0.72159 (Simulation time: 0 hr 2 min 34 sec) 
Heartbeat CPU  0 instructions:  138000000 cycles:  102476180 heartbeat IPC: 0.42144 cumulative IPC: 0.70831 (Simulation time: 0 hr 2 min 36 sec) 
Heartbeat CPU  0 instructions:  139000000 cycles:  104847118 heartbeat IPC: 0.42177 cumulative IPC: 0.69618 (Simulation time: 0 hr 2 min 38 sec) 
Heartbeat CPU  0 instructions:  140000000 cycles:  107223540 heartbeat IPC: 0.42080 cumulative IPC: 0.68498 (Simulation time: 0 hr 2 min 40 sec) 
Heartbeat CPU  0 instructions:  141000000 cycles:  109600296 heartbeat IPC: 0.42074 cumulative IPC: 0.67464 (Simulation time: 0 hr 2 min 42 sec) 
Heartbeat CPU  0 instructions:  142000000 cycles:  111972093 heartbeat IPC: 0.42162 cumulative IPC: 0.66514 (Simulation time: 0 hr 2 min 45 sec) 
Heartbeat CPU  0 instructions:  143000000 cycles:  114344021 heartbeat IPC: 0.42160 cumulative IPC: 0.65632 (Simulation time: 0 hr 2 min 47 sec) 
Heartbeat CPU  0 instructions:  144000000 cycles:  116715175 heartbeat IPC: 0.42174 cumulative IPC: 0.64813 (Simulation time: 0 hr 2 min 49 sec) 
Heartbeat CPU  0 instructions:  145000002 cycles:  118855648 heartbeat IPC: 0.46719 cumulative IPC: 0.64260 (Simulation time: 0 hr 2 min 51 sec) 
Heartbeat CPU  0 instructions:  146000000 cycles:  120363162 heartbeat IPC: 0.66334 cumulative IPC: 0.64304 (Simulation time: 0 hr 2 min 53 sec) 
Heartbeat CPU  0 instructions:  147000000 cycles:  121655276 heartbeat IPC: 0.77393 cumulative IPC: 0.64536 (Simulation time: 0 hr 2 min 54 sec) 
Heartbeat CPU  0 instructions:  148000000 cycles:  122982617 heartbeat IPC: 0.75339 cumulative IPC: 0.64729 (Simulation time: 0 hr 2 min 56 sec) 
Heartbeat CPU  0 instructions:  149000000 cycles:  124259700 heartbeat IPC: 0.78303 cumulative IPC: 0.64959 (Simulation time: 0 hr 2 min 57 sec) 
Heartbeat CPU  0 instructions:  150000001 cycles:  125400113 heartbeat IPC: 0.87688 cumulative IPC: 0.65297 (Simulation time: 0 hr 2 min 59 sec) 
Heartbeat CPU  0 instructions:  151000000 cycles:  126461924 heartbeat IPC: 0.94179 cumulative IPC: 0.65692 (Simulation time: 0 hr 3 min 0 sec) 
Heartbeat CPU  0 instructions:  152000000 cycles:  127528819 heartbeat IPC: 0.93730 cumulative IPC: 0.66073 (Simulation time: 0 hr 3 min 2 sec) 
Heartbeat CPU  0 instructions:  153000001 cycles:  128603827 heartbeat IPC: 0.93023 cumulative IPC: 0.66436 (Simulation time: 0 hr 3 min 3 sec) 
Heartbeat CPU  0 instructions:  154000003 cycles:  129661292 heartbeat IPC: 0.94566 cumulative IPC: 0.66804 (Simulation time: 0 hr 3 min 4 sec) 
Heartbeat CPU  0 instructions:  155000001 cycles:  130749437 heartbeat IPC: 0.91899 cumulative IPC: 0.67137 (Simulation time: 0 hr 3 min 6 sec) 
Heartbeat CPU  0 instructions:  156000000 cycles:  131826484 heartbeat IPC: 0.92846 cumulative IPC: 0.67471 (Simulation time: 0 hr 3 min 7 sec) 
Heartbeat CPU  0 instructions:  157000002 cycles:  132896999 heartbeat IPC: 0.93413 cumulative IPC: 0.67801 (Simulation time: 0 hr 3 min 9 sec) 
Heartbeat CPU  0 instructions:  158000000 cycles:  133978770 heartbeat IPC: 0.92441 cumulative IPC: 0.68114 (Simulation time: 0 hr 3 min 10 sec) 
Heartbeat CPU  0 instructions:  159000002 cycles:  135035668 heartbeat IPC: 0.94617 cumulative IPC: 0.68439 (Simulation time: 0 hr 3 min 11 sec) 
Heartbeat CPU  0 instructions:  160000000 cycles:  136098980 heartbeat IPC: 0.94046 cumulative IPC: 0.68751 (Simulation time: 0 hr 3 min 13 sec) 
Heartbeat CPU  0 instructions:  161000000 cycles:  137178373 heartbeat IPC: 0.92645 cumulative IPC: 0.69043 (Simulation time: 0 hr 3 min 14 sec) 
Heartbeat CPU  0 instructions:  162000002 cycles:  138234047 heartbeat IPC: 0.94726 cumulative IPC: 0.69346 (Simulation time: 0 hr 3 min 16 sec) 
Heartbeat CPU  0 instructions:  163000000 cycles:  139313090 heartbeat IPC: 0.92675 cumulative IPC: 0.69624 (Simulation time: 0 hr 3 min 17 sec) 
Heartbeat CPU  0 instructions:  164000000 cycles:  140383050 heartbeat IPC: 0.93461 cumulative IPC: 0.69903 (Simulation time: 0 hr 3 min 18 sec) 
Heartbeat CPU  0 instructions:  165000001 cycles:  141455623 heartbeat IPC: 0.93234 cumulative IPC: 0.70173 (Simulation time: 0 hr 3 min 20 sec) 
Heartbeat CPU  0 instructions:  166000003 cycles:  142530058 heartbeat IPC: 0.93072 cumulative IPC: 0.70436 (Simulation time: 0 hr 3 min 21 sec) 
Heartbeat CPU  0 instructions:  167000001 cycles:  143596758 heartbeat IPC: 0.93747 cumulative IPC: 0.70698 (Simulation time: 0 hr 3 min 23 sec) 
Heartbeat CPU  0 instructions:  168000000 cycles:  144687343 heartbeat IPC: 0.91694 cumulative IPC: 0.70937 (Simulation time: 0 hr 3 min 24 sec) 
Heartbeat CPU  0 instructions:  169000000 cycles:  145779447 heartbeat IPC: 0.91566 cumulative IPC: 0.71169 (Simulation time: 0 hr 3 min 26 sec) 
Heartbeat CPU  0 instructions:  170000003 cycles:  146944720 heartbeat IPC: 0.85817 cumulative IPC: 0.71343 (Simulation time: 0 hr 3 min 27 sec) 
Heartbeat CPU  0 instructions:  171000001 cycles:  148158462 heartbeat IPC: 0.82390 cumulative IPC: 0.71478 (Simulation time: 0 hr 3 min 29 sec) 
Heartbeat CPU  0 instructions:  172000000 cycles:  149374349 heartbeat IPC: 0.82244 cumulative IPC: 0.71608 (Simulation time: 0 hr 3 min 30 sec) 
Heartbeat CPU  0 instructions:  173000001 cycles:  150591436 heartbeat IPC: 0.82163 cumulative IPC: 0.71735 (Simulation time: 0 hr 3 min 32 sec) 
Heartbeat CPU  0 instructions:  174000000 cycles:  151808135 heartbeat IPC: 0.82190 cumulative IPC: 0.71858 (Simulation time: 0 hr 3 min 33 sec) 
Heartbeat CPU  0 instructions:  175000002 cycles:  153026066 heartbeat IPC: 0.82107 cumulative IPC: 0.71978 (Simulation time: 0 hr 3 min 35 sec) 
Heartbeat CPU  0 instructions:  176000000 cycles:  154239608 heartbeat IPC: 0.82403 cumulative IPC: 0.72098 (Simulation time: 0 hr 3 min 36 sec) 
Heartbeat CPU  0 instructions:  177000002 cycles:  155459660 heartbeat IPC: 0.81964 cumulative IPC: 0.72211 (Simulation time: 0 hr 3 min 38 sec) 
Heartbeat CPU  0 instructions:  178000000 cycles:  156677396 heartbeat IPC: 0.82119 cumulative IPC: 0.72323 (Simulation time: 0 hr 3 min 39 sec) 
Heartbeat CPU  0 instructions:  179000003 cycles:  157895625 heartbeat IPC: 0.82087 cumulative IPC: 0.72432 (Simulation time: 0 hr 3 min 41 sec) 
Heartbeat CPU  0 instructions:  180000000 cycles:  159115942 heartbeat IPC: 0.81946 cumulative IPC: 0.72537 (Simulation time: 0 hr 3 min 42 sec) 
Heartbeat CPU  0 instructions:  181000000 cycles:  160331715 heartbeat IPC: 0.82252 cumulative IPC: 0.72643 (Simulation time: 0 hr 3 min 44 sec) 
Heartbeat CPU  0 instructions:  182000001 cycles:  161548961 heartbeat IPC: 0.82153 cumulative IPC: 0.72746 (Simulation time: 0 hr 3 min 45 sec) 
Heartbeat CPU  0 instructions:  183000000 cycles:  162766346 heartbeat IPC: 0.82143 cumulative IPC: 0.72846 (Simulation time: 0 hr 3 min 47 sec) 
Heartbeat CPU  0 instructions:  184000000 cycles:  163979524 heartbeat IPC: 0.82428 cumulative IPC: 0.72947 (Simulation time: 0 hr 3 min 48 sec) 
Heartbeat CPU  0 instructions:  185000001 cycles:  165200273 heartbeat IPC: 0.81917 cumulative IPC: 0.73041 (Simulation time: 0 hr 3 min 50 sec) 
Heartbeat CPU  0 instructions:  186000002 cycles:  166417433 heartbeat IPC: 0.82159 cumulative IPC: 0.73135 (Simulation time: 0 hr 3 min 51 sec) 
Heartbeat CPU  0 instructions:  187000000 cycles:  167633864 heartbeat IPC: 0.82208 cumulative IPC: 0.73228 (Simulation time: 0 hr 3 min 53 sec) 
Heartbeat CPU  0 instructions:  188000000 cycles:  168852466 heartbeat IPC: 0.82061 cumulative IPC: 0.73318 (Simulation time: 0 hr 3 min 54 sec) 
Heartbeat CPU  0 instructions:  189000001 cycles:  170067698 heartbeat IPC: 0.82289 cumulative IPC: 0.73408 (Simulation time: 0 hr 3 min 56 sec) 
Heartbeat CPU  0 instructions:  190000000 cycles:  171285298 heartbeat IPC: 0.82129 cumulative IPC: 0.73495 (Simulation time: 0 hr 3 min 57 sec) 
Heartbeat CPU  0 instructions:  191000000 cycles:  172522205 heartbeat IPC: 0.80847 cumulative IPC: 0.73568 (Simulation time: 0 hr 3 min 59 sec) 
Heartbeat CPU  0 instructions:  192000000 cycles:  174082969 heartbeat IPC: 0.64071 cumulative IPC: 0.73450 (Simulation time: 0 hr 4 min 0 sec) 
Heartbeat CPU  0 instructions:  193000000 cycles:  176483401 heartbeat IPC: 0.41659 cumulative IPC: 0.72852 (Simulation time: 0 hr 4 min 3 sec) 
Heartbeat CPU  0 instructions:  194000000 cycles:  178889382 heartbeat IPC: 0.41563 cumulative IPC: 0.72273 (Simulation time: 0 hr 4 min 5 sec) 
Heartbeat CPU  0 instructions:  195000000 cycles:  181287214 heartbeat IPC: 0.41704 cumulative IPC: 0.71720 (Simulation time: 0 hr 4 min 7 sec) 
Heartbeat CPU  0 instructions:  196000000 cycles:  183676140 heartbeat IPC: 0.41860 cumulative IPC: 0.71191 (Simulation time: 0 hr 4 min 9 sec) 
Heartbeat CPU  0 instructions:  197000000 cycles:  186063236 heartbeat IPC: 0.41892 cumulative IPC: 0.70681 (Simulation time: 0 hr 4 min 11 sec) 
Heartbeat CPU  0 instructions:  198000000 cycles:  188460685 heartbeat IPC: 0.41711 cumulative IPC: 0.70184 (Simulation time: 0 hr 4 min 14 sec) 
Heartbeat CPU  0 instructions:  199000000 cycles:  190854439 heartbeat IPC: 0.41775 cumulative IPC: 0.69705 (Simulation time: 0 hr 4 min 16 sec) 
Heartbeat CPU  0 instructions:  200000000 cycles:  193245460 heartbeat IPC: 0.41823 cumulative IPC: 0.69243 (Simulation time: 0 hr 4 min 18 sec) 
Finished CPU 0 instructions: 100000000 cycles: 144418064 cumulative IPC: 0.69243 (Simulation time: 0 hr 4 min 18 sec) 

ChampSim completed all CPUs

[ROI Statistics]
Core_0_instructions 100000000
Core_0_cycles 144418064
Core_0_IPC 0.69243

Core_0_branch_prediction_accuracy 99.58952
Core_0_branch_MPKI 0.70683
Core_0_average_ROB_occupancy_at_mispredict 218.78486

Core_0_L1D_total_access 13316841
Core_0_L1D_total_hit 10740618
Core_0_L1D_total_miss 2576223
Core_0_L1D_loads 9823866
Core_0_L1D_load_hit 7247663
Core_0_L1D_load_miss 2576203
Core_0_L1D_RFOs 3492975
Core_0_L1D_RFO_hit 3492955
Core_0_L1D_RFO_miss 20
Core_0_L1D_prefetches 0
Core_0_L1D_prefetch_hit 0
Core_0_L1D_prefetch_miss 0
Core_0_L1D_writebacks 0
Core_0_L1D_writeback_hit 0
Core_0_L1D_writeback_miss 0
Core_0_L1D_prefetch_requested 0
Core_0_L1D_prefetch_issued 0
Core_0_L1D_prefetch_useful 0
Core_0_L1D_prefetch_useless 0
Core_0_L1D_prefetch_late 0
Core_0_L1D_average_miss_latency 103.90862

Core_0_L1I_total_access 32490829
Core_0_L1I_total_hit 32490828
Core_0_L1I_total_miss 1
Core_0_L1I_loads 32490829
Core_0_L1I_load_hit 32490828
Core_0_L1I_load_miss 1
Core_0_L1I_RFOs 0
Core_0_L1I_RFO_hit 0
Core_0_L1I_RFO_miss 0
Core_0_L1I_prefetches 0
Core_0_L1I_prefetch_hit 0
Core_0_L1I_prefetch_miss 0
Core_0_L1I_writebacks 0
Core_0_L1I_writeback_hit 0
Core_0_L1I_writeback_miss 0
Core_0_L1I_prefetch_requested 0
Core_0_L1I_prefetch_issued 0
Core_0_L1I_prefetch_useful 0
Core_0_L1I_prefetch_useless 0
Core_0_L1I_prefetch_late 0
Core_0_L1I_average_miss_latency 262.00000

Core_0_L2C_total_access 5325955
Core_0_L2C_total_hit 2749718
Core_0_L2C_total_miss 2576237
Core_0_L2C_loads 2576204
Core_0_L2C_load_hit 1007844
Core_0_L2C_load_miss 1568360
Core_0_L2C_RFOs 20
Core_0_L2C_RFO_hit 0
Core_0_L2C_RFO_miss 20
Core_0_L2C_prefetches 1799586
Core_0_L2C_prefetch_hit 791729
Core_0_L2C_prefetch_miss 1007857
Core_0_L2C_writebacks 950145
Core_0_L2C_writeback_hit 950145
Core_0_L2C_writeback_miss 0
Core_0_L2C_prefetch_requested 15190374
Core_0_L2C_prefetch_issued 15190374
Core_0_L2C_prefetch_useful 3618085
Core_0_L2C_prefetch_useless 30
Core_0_L2C_prefetch_late 1496738
Core_0_L2C_average_miss_latency 154.98582

Core_0_LLC_total_access 3518941
Core_0_LLC_total_hit 650415
Core_0_LLC_total_miss 2868526
Core_0_LLC_loads 71624
Core_0_LLC_load_hit 0
Core_0_LLC_load_miss 71624
Core_0_LLC_RFOs 20
Core_0_LLC_RFO_hit 0
Core_0_LLC_RFO_miss 20
Core_0_LLC_prefetches 2504594
Core_0_LLC_prefetch_hit 0
Core_0_LLC_prefetch_miss 2504594
Core_0_LLC_writebacks 942703
Core_0_LLC_writeback_hit 650415
Core_0_LLC_writeback_miss 292288
Core_0_LLC_prefetch_requested 0
Core_0_LLC_prefetch_issued 0
Core_0_LLC_prefetch_useful 0
Core_0_LLC_prefetch_useless 5086047
Core_0_LLC_prefetch_late 0
Core_0_LLC_average_miss_latency 157.65754

Core_0_major_page_fault 0
Core_0_minor_page_fault 8199

CPU 0 L2C PC-based stride prefetcher final stats
Channel_0_RQ_row_buffer_hit 1349368
Channel_0_RQ_row_buffer_miss 1226871
Channel_0_WQ_row_buffer_hit 254647
Channel_0_WQ_row_buffer_miss 663510
Channel_0_WQ_full 0
Channel_0_dbus_congested 1960256

avg_congested_cycle 10
