*************************************************
   ChampSim Multicore Out-of-Order Simulator
   Last compiled: Dec 21 2023 19:22:10
*************************************************

trace_0 ./test_trace/462.libquantum-714B.champsimtrace.xz
CPU 0 L1D next line prefetcher
CPU 0 L2C IP-based stride prefetcher
Initialize SRRIP state
warmup_instructions 100000000
simulation_instructions 100000000
champsim_seed 222

num_cpus 1
cpu_freq 4000
dram_io_freq 2400
page_size 4096
block_size 64
max_read_per_cycle 8
max_fill_per_cycle 1
dram_channels 1
dram_ranks 1
dram_banks 8
dram_rows 65536
dram_columns 128
dram_row_size 8
dram_size 4096
dram_pages 1048576

fetch_width 6
decode_width 6
exec_width 4
lq_width 2
sq_width 2
retire_width 4
scheduler_size 128
branch_mispredict_penalty 20
rob_size 256
lq_size 72
sq_size 56
num_instr_destinations_sparc 4
num_instr_destinations 2
num_instr_sources 4

itlb_set 16
itlb_way 8
itlb_rq_size 16
itlb_wq_size 16
itlb_pq_size 0
itlb_mshr_size 8
itlb_latency 1

dtlb_set 16
dtlb_way 4
dtlb_rq_size 16
dtlb_wq_size 16
dtlb_pq_size 0
dtlb_mshr_size 8
dtlb_latency 1

stlb_set 128
stlb_way 12
stlb_rq_size 32
stlb_wq_size 32
stlb_pq_size 0
stlb_mshr_size 16
stlb_latency 8

l1i_size 32
l1i_set 64
l1i_way 8
l1i_rq_size 64
l1i_wq_size 64
l1i_pq_size 8
l1i_mshr_size 8
l1i_latency 1

l1d_size 32
l1d_set 64
l1d_way 8
l1d_rq_size 64
l1d_wq_size 64
l1d_pq_size 8
l1d_mshr_size 16
l1d_latency 4

l2c_size 512
l2c_set 1024
l2c_way 8
l2c_rq_size 32
l2c_wq_size 32
l2c_pq_size 16
l2c_mshr_size 32
l2c_latency 10

llc_size 2048
llc_set 2048
llc_way 16
llc_rq_size 32
llc_wq_size 32
llc_pq_size 32
llc_mshr_size 64
llc_latency 20

dram_channel_width 8
dram_wq_size 64
dram_rq_size 64
tRP 15
tRCD 15
tCAS 12.5
dram_dbus_turn_around_time 30
dram_write_high_wm 56
dram_write_low_wm 48
min_dram_writes_per_switch 16
dram_mtps 2400
dram_dbus_return_time 13


Heartbeat CPU  0 instructions:    1000000 cycles:     581510 heartbeat IPC: 1.71966 cumulative IPC: 1.71966 (Simulation time: 0 hr 0 min 1 sec) 
Heartbeat CPU  0 instructions:    2000003 cycles:    1163543 heartbeat IPC: 1.71812 cumulative IPC: 1.71889 (Simulation time: 0 hr 0 min 2 sec) 
Heartbeat CPU  0 instructions:    3000002 cycles:    1745575 heartbeat IPC: 1.71812 cumulative IPC: 1.71863 (Simulation time: 0 hr 0 min 3 sec) 
Heartbeat CPU  0 instructions:    4000000 cycles:    2327604 heartbeat IPC: 1.71812 cumulative IPC: 1.71851 (Simulation time: 0 hr 0 min 4 sec) 
Heartbeat CPU  0 instructions:    5000000 cycles:    2909636 heartbeat IPC: 1.71812 cumulative IPC: 1.71843 (Simulation time: 0 hr 0 min 5 sec) 
Heartbeat CPU  0 instructions:    6000000 cycles:    3491670 heartbeat IPC: 1.71811 cumulative IPC: 1.71838 (Simulation time: 0 hr 0 min 6 sec) 
Heartbeat CPU  0 instructions:    7000000 cycles:    4073701 heartbeat IPC: 1.71812 cumulative IPC: 1.71834 (Simulation time: 0 hr 0 min 6 sec) 
Heartbeat CPU  0 instructions:    8000000 cycles:    4655734 heartbeat IPC: 1.71812 cumulative IPC: 1.71831 (Simulation time: 0 hr 0 min 7 sec) 
Heartbeat CPU  0 instructions:    9000002 cycles:    5192889 heartbeat IPC: 1.86166 cumulative IPC: 1.73314 (Simulation time: 0 hr 0 min 9 sec) 
Heartbeat CPU  0 instructions:   10000002 cycles:    5715751 heartbeat IPC: 1.91255 cumulative IPC: 1.74955 (Simulation time: 0 hr 0 min 10 sec) 
Heartbeat CPU  0 instructions:   11000001 cycles:    6238636 heartbeat IPC: 1.91246 cumulative IPC: 1.76321 (Simulation time: 0 hr 0 min 11 sec) 
Heartbeat CPU  0 instructions:   12000000 cycles:    6761498 heartbeat IPC: 1.91255 cumulative IPC: 1.77475 (Simulation time: 0 hr 0 min 13 sec) 
Heartbeat CPU  0 instructions:   13000001 cycles:    7284407 heartbeat IPC: 1.91238 cumulative IPC: 1.78463 (Simulation time: 0 hr 0 min 14 sec) 
Heartbeat CPU  0 instructions:   14000001 cycles:    7807269 heartbeat IPC: 1.91255 cumulative IPC: 1.79320 (Simulation time: 0 hr 0 min 16 sec) 
Heartbeat CPU  0 instructions:   15000000 cycles:    8330154 heartbeat IPC: 1.91246 cumulative IPC: 1.80069 (Simulation time: 0 hr 0 min 17 sec) 
Heartbeat CPU  0 instructions:   16000000 cycles:    8853016 heartbeat IPC: 1.91255 cumulative IPC: 1.80729 (Simulation time: 0 hr 0 min 18 sec) 
Heartbeat CPU  0 instructions:   17000000 cycles:    9375925 heartbeat IPC: 1.91238 cumulative IPC: 1.81315 (Simulation time: 0 hr 0 min 20 sec) 
Heartbeat CPU  0 instructions:   18000000 cycles:    9898787 heartbeat IPC: 1.91255 cumulative IPC: 1.81840 (Simulation time: 0 hr 0 min 21 sec) 
Heartbeat CPU  0 instructions:   19000003 cycles:   10421672 heartbeat IPC: 1.91247 cumulative IPC: 1.82312 (Simulation time: 0 hr 0 min 23 sec) 
Heartbeat CPU  0 instructions:   20000000 cycles:   10944534 heartbeat IPC: 1.91254 cumulative IPC: 1.82740 (Simulation time: 0 hr 0 min 24 sec) 
Heartbeat CPU  0 instructions:   21000003 cycles:   11467443 heartbeat IPC: 1.91238 cumulative IPC: 1.83127 (Simulation time: 0 hr 0 min 25 sec) 
Heartbeat CPU  0 instructions:   22000003 cycles:   11990305 heartbeat IPC: 1.91255 cumulative IPC: 1.83482 (Simulation time: 0 hr 0 min 27 sec) 
Heartbeat CPU  0 instructions:   23000000 cycles:   12504821 heartbeat IPC: 1.94357 cumulative IPC: 1.83929 (Simulation time: 0 hr 0 min 28 sec) 
Heartbeat CPU  0 instructions:   24000000 cycles:   12925102 heartbeat IPC: 2.37936 cumulative IPC: 1.85685 (Simulation time: 0 hr 0 min 29 sec) 
Heartbeat CPU  0 instructions:   25000000 cycles:   13345378 heartbeat IPC: 2.37939 cumulative IPC: 1.87331 (Simulation time: 0 hr 0 min 30 sec) 
Heartbeat CPU  0 instructions:   26000000 cycles:   13765664 heartbeat IPC: 2.37933 cumulative IPC: 1.88876 (Simulation time: 0 hr 0 min 30 sec) 
Heartbeat CPU  0 instructions:   27000000 cycles:   14185975 heartbeat IPC: 2.37919 cumulative IPC: 1.90329 (Simulation time: 0 hr 0 min 31 sec) 
Heartbeat CPU  0 instructions:   28000000 cycles:   14606283 heartbeat IPC: 2.37921 cumulative IPC: 1.91698 (Simulation time: 0 hr 0 min 32 sec) 
Heartbeat CPU  0 instructions:   29000002 cycles:   15026561 heartbeat IPC: 2.37938 cumulative IPC: 1.92992 (Simulation time: 0 hr 0 min 33 sec) 
Heartbeat CPU  0 instructions:   30000003 cycles:   15446827 heartbeat IPC: 2.37945 cumulative IPC: 1.94215 (Simulation time: 0 hr 0 min 33 sec) 
Heartbeat CPU  0 instructions:   31000001 cycles:   15867121 heartbeat IPC: 2.37928 cumulative IPC: 1.95373 (Simulation time: 0 hr 0 min 34 sec) 
Heartbeat CPU  0 instructions:   32000000 cycles:   16287440 heartbeat IPC: 2.37914 cumulative IPC: 1.96470 (Simulation time: 0 hr 0 min 35 sec) 
Heartbeat CPU  0 instructions:   33000003 cycles:   16707714 heartbeat IPC: 2.37941 cumulative IPC: 1.97514 (Simulation time: 0 hr 0 min 36 sec) 
Heartbeat CPU  0 instructions:   34000000 cycles:   17127976 heartbeat IPC: 2.37946 cumulative IPC: 1.98506 (Simulation time: 0 hr 0 min 36 sec) 
Heartbeat CPU  0 instructions:   35000002 cycles:   17548265 heartbeat IPC: 2.37932 cumulative IPC: 1.99450 (Simulation time: 0 hr 0 min 37 sec) 
Heartbeat CPU  0 instructions:   36000000 cycles:   17968578 heartbeat IPC: 2.37917 cumulative IPC: 2.00350 (Simulation time: 0 hr 0 min 38 sec) 
Heartbeat CPU  0 instructions:   37000000 cycles:   18388894 heartbeat IPC: 2.37916 cumulative IPC: 2.01208 (Simulation time: 0 hr 0 min 39 sec) 
Heartbeat CPU  0 instructions:   38000002 cycles:   18809163 heartbeat IPC: 2.37943 cumulative IPC: 2.02029 (Simulation time: 0 hr 0 min 39 sec) 
Heartbeat CPU  0 instructions:   39000000 cycles:   19229446 heartbeat IPC: 2.37934 cumulative IPC: 2.02814 (Simulation time: 0 hr 0 min 40 sec) 
Heartbeat CPU  0 instructions:   40000000 cycles:   19649740 heartbeat IPC: 2.37929 cumulative IPC: 2.03565 (Simulation time: 0 hr 0 min 41 sec) 
Heartbeat CPU  0 instructions:   41000002 cycles:   20070076 heartbeat IPC: 2.37905 cumulative IPC: 2.04284 (Simulation time: 0 hr 0 min 42 sec) 
Heartbeat CPU  0 instructions:   42000003 cycles:   20490346 heartbeat IPC: 2.37943 cumulative IPC: 2.04975 (Simulation time: 0 hr 0 min 42 sec) 
Heartbeat CPU  0 instructions:   43000001 cycles:   20910616 heartbeat IPC: 2.37942 cumulative IPC: 2.05637 (Simulation time: 0 hr 0 min 43 sec) 
Heartbeat CPU  0 instructions:   44000000 cycles:   21330886 heartbeat IPC: 2.37942 cumulative IPC: 2.06274 (Simulation time: 0 hr 0 min 44 sec) 
Heartbeat CPU  0 instructions:   45000001 cycles:   21751189 heartbeat IPC: 2.37924 cumulative IPC: 2.06885 (Simulation time: 0 hr 0 min 45 sec) 
Heartbeat CPU  0 instructions:   46000001 cycles:   22171496 heartbeat IPC: 2.37921 cumulative IPC: 2.07474 (Simulation time: 0 hr 0 min 45 sec) 
Heartbeat CPU  0 instructions:   47000000 cycles:   22751003 heartbeat IPC: 1.72560 cumulative IPC: 2.06584 (Simulation time: 0 hr 0 min 46 sec) 
Heartbeat CPU  0 instructions:   48000000 cycles:   23333742 heartbeat IPC: 1.71603 cumulative IPC: 2.05711 (Simulation time: 0 hr 0 min 47 sec) 
Heartbeat CPU  0 instructions:   49000000 cycles:   23916486 heartbeat IPC: 1.71602 cumulative IPC: 2.04880 (Simulation time: 0 hr 0 min 48 sec) 
Heartbeat CPU  0 instructions:   50000002 cycles:   24499228 heartbeat IPC: 1.71603 cumulative IPC: 2.04088 (Simulation time: 0 hr 0 min 49 sec) 
Heartbeat CPU  0 instructions:   51000002 cycles:   25081969 heartbeat IPC: 1.71603 cumulative IPC: 2.03333 (Simulation time: 0 hr 0 min 50 sec) 
Heartbeat CPU  0 instructions:   52000000 cycles:   25664708 heartbeat IPC: 1.71603 cumulative IPC: 2.02613 (Simulation time: 0 hr 0 min 50 sec) 
Heartbeat CPU  0 instructions:   53000000 cycles:   26247449 heartbeat IPC: 1.71603 cumulative IPC: 2.01924 (Simulation time: 0 hr 0 min 51 sec) 
Heartbeat CPU  0 instructions:   54000003 cycles:   26830192 heartbeat IPC: 1.71603 cumulative IPC: 2.01266 (Simulation time: 0 hr 0 min 52 sec) 
Heartbeat CPU  0 instructions:   55000002 cycles:   27412934 heartbeat IPC: 1.71602 cumulative IPC: 2.00635 (Simulation time: 0 hr 0 min 53 sec) 
Heartbeat CPU  0 instructions:   56000000 cycles:   27995673 heartbeat IPC: 1.71603 cumulative IPC: 2.00031 (Simulation time: 0 hr 0 min 54 sec) 
Heartbeat CPU  0 instructions:   57000000 cycles:   28578415 heartbeat IPC: 1.71603 cumulative IPC: 1.99451 (Simulation time: 0 hr 0 min 55 sec) 
Heartbeat CPU  0 instructions:   58000000 cycles:   29161159 heartbeat IPC: 1.71602 cumulative IPC: 1.98895 (Simulation time: 0 hr 0 min 56 sec) 
Heartbeat CPU  0 instructions:   59000000 cycles:   29743900 heartbeat IPC: 1.71603 cumulative IPC: 1.98360 (Simulation time: 0 hr 0 min 56 sec) 
Heartbeat CPU  0 instructions:   60000000 cycles:   30326643 heartbeat IPC: 1.71602 cumulative IPC: 1.97846 (Simulation time: 0 hr 0 min 57 sec) 
Heartbeat CPU  0 instructions:   61000002 cycles:   30909383 heartbeat IPC: 1.71603 cumulative IPC: 1.97351 (Simulation time: 0 hr 0 min 58 sec) 
Heartbeat CPU  0 instructions:   62000002 cycles:   31492124 heartbeat IPC: 1.71603 cumulative IPC: 1.96875 (Simulation time: 0 hr 0 min 59 sec) 
Heartbeat CPU  0 instructions:   63000001 cycles:   32074866 heartbeat IPC: 1.71602 cumulative IPC: 1.96415 (Simulation time: 0 hr 1 min 0 sec) 
Heartbeat CPU  0 instructions:   64000000 cycles:   32657605 heartbeat IPC: 1.71603 cumulative IPC: 1.95973 (Simulation time: 0 hr 1 min 1 sec) 
Heartbeat CPU  0 instructions:   65000003 cycles:   33240348 heartbeat IPC: 1.71603 cumulative IPC: 1.95545 (Simulation time: 0 hr 1 min 1 sec) 
Heartbeat CPU  0 instructions:   66000002 cycles:   33823090 heartbeat IPC: 1.71602 cumulative IPC: 1.95133 (Simulation time: 0 hr 1 min 2 sec) 
Heartbeat CPU  0 instructions:   67000001 cycles:   34405829 heartbeat IPC: 1.71603 cumulative IPC: 1.94734 (Simulation time: 0 hr 1 min 3 sec) 
Heartbeat CPU  0 instructions:   68000000 cycles:   34988572 heartbeat IPC: 1.71602 cumulative IPC: 1.94349 (Simulation time: 0 hr 1 min 4 sec) 
Heartbeat CPU  0 instructions:   69000000 cycles:   35571317 heartbeat IPC: 1.71602 cumulative IPC: 1.93977 (Simulation time: 0 hr 1 min 5 sec) 
Heartbeat CPU  0 instructions:   70000000 cycles:   36097439 heartbeat IPC: 1.90070 cumulative IPC: 1.93920 (Simulation time: 0 hr 1 min 6 sec) 
Heartbeat CPU  0 instructions:   71000003 cycles:   36618089 heartbeat IPC: 1.92068 cumulative IPC: 1.93893 (Simulation time: 0 hr 1 min 8 sec) 
Heartbeat CPU  0 instructions:   72000000 cycles:   37138719 heartbeat IPC: 1.92074 cumulative IPC: 1.93868 (Simulation time: 0 hr 1 min 9 sec) 
Heartbeat CPU  0 instructions:   73000002 cycles:   37659396 heartbeat IPC: 1.92058 cumulative IPC: 1.93843 (Simulation time: 0 hr 1 min 10 sec) 
Heartbeat CPU  0 instructions:   74000002 cycles:   38180026 heartbeat IPC: 1.92075 cumulative IPC: 1.93819 (Simulation time: 0 hr 1 min 12 sec) 
Heartbeat CPU  0 instructions:   75000001 cycles:   38700680 heartbeat IPC: 1.92066 cumulative IPC: 1.93795 (Simulation time: 0 hr 1 min 13 sec) 
Heartbeat CPU  0 instructions:   76000000 cycles:   39221310 heartbeat IPC: 1.92075 cumulative IPC: 1.93772 (Simulation time: 0 hr 1 min 14 sec) 
Heartbeat CPU  0 instructions:   77000001 cycles:   39741987 heartbeat IPC: 1.92058 cumulative IPC: 1.93750 (Simulation time: 0 hr 1 min 16 sec) 
Heartbeat CPU  0 instructions:   78000001 cycles:   40262617 heartbeat IPC: 1.92075 cumulative IPC: 1.93728 (Simulation time: 0 hr 1 min 17 sec) 
Heartbeat CPU  0 instructions:   79000000 cycles:   40783271 heartbeat IPC: 1.92066 cumulative IPC: 1.93707 (Simulation time: 0 hr 1 min 19 sec) 
Heartbeat CPU  0 instructions:   80000000 cycles:   41303901 heartbeat IPC: 1.92075 cumulative IPC: 1.93686 (Simulation time: 0 hr 1 min 20 sec) 
Heartbeat CPU  0 instructions:   81000000 cycles:   41824578 heartbeat IPC: 1.92058 cumulative IPC: 1.93666 (Simulation time: 0 hr 1 min 21 sec) 
Heartbeat CPU  0 instructions:   82000000 cycles:   42345208 heartbeat IPC: 1.92075 cumulative IPC: 1.93646 (Simulation time: 0 hr 1 min 23 sec) 
Heartbeat CPU  0 instructions:   83000003 cycles:   42865860 heartbeat IPC: 1.92067 cumulative IPC: 1.93627 (Simulation time: 0 hr 1 min 24 sec) 
Heartbeat CPU  0 instructions:   84000000 cycles:   43363106 heartbeat IPC: 2.01107 cumulative IPC: 1.93713 (Simulation time: 0 hr 1 min 25 sec) 
Heartbeat CPU  0 instructions:   85000000 cycles:   43783389 heartbeat IPC: 2.37935 cumulative IPC: 1.94138 (Simulation time: 0 hr 1 min 26 sec) 
Heartbeat CPU  0 instructions:   86000001 cycles:   44203676 heartbeat IPC: 2.37933 cumulative IPC: 1.94554 (Simulation time: 0 hr 1 min 27 sec) 
Heartbeat CPU  0 instructions:   87000003 cycles:   44623977 heartbeat IPC: 2.37925 cumulative IPC: 1.94962 (Simulation time: 0 hr 1 min 28 sec) 
Heartbeat CPU  0 instructions:   88000000 cycles:   45044337 heartbeat IPC: 2.37891 cumulative IPC: 1.95363 (Simulation time: 0 hr 1 min 28 sec) 
Heartbeat CPU  0 instructions:   89000001 cycles:   45464617 heartbeat IPC: 2.37937 cumulative IPC: 1.95757 (Simulation time: 0 hr 1 min 29 sec) 
Heartbeat CPU  0 instructions:   90000001 cycles:   45884896 heartbeat IPC: 2.37937 cumulative IPC: 1.96143 (Simulation time: 0 hr 1 min 30 sec) 
Heartbeat CPU  0 instructions:   91000000 cycles:   46305176 heartbeat IPC: 2.37936 cumulative IPC: 1.96522 (Simulation time: 0 hr 1 min 31 sec) 
Heartbeat CPU  0 instructions:   92000000 cycles:   46725483 heartbeat IPC: 2.37921 cumulative IPC: 1.96895 (Simulation time: 0 hr 1 min 32 sec) 
Heartbeat CPU  0 instructions:   93000003 cycles:   47145816 heartbeat IPC: 2.37907 cumulative IPC: 1.97260 (Simulation time: 0 hr 1 min 32 sec) 
Heartbeat CPU  0 instructions:   94000000 cycles:   47566098 heartbeat IPC: 2.37935 cumulative IPC: 1.97620 (Simulation time: 0 hr 1 min 33 sec) 
Heartbeat CPU  0 instructions:   95000002 cycles:   47986381 heartbeat IPC: 2.37935 cumulative IPC: 1.97973 (Simulation time: 0 hr 1 min 34 sec) 
Heartbeat CPU  0 instructions:   96000000 cycles:   48406676 heartbeat IPC: 2.37928 cumulative IPC: 1.98320 (Simulation time: 0 hr 1 min 35 sec) 
Heartbeat CPU  0 instructions:   97000000 cycles:   48827032 heartbeat IPC: 2.37894 cumulative IPC: 1.98660 (Simulation time: 0 hr 1 min 35 sec) 
Heartbeat CPU  0 instructions:   98000000 cycles:   49247322 heartbeat IPC: 2.37931 cumulative IPC: 1.98996 (Simulation time: 0 hr 1 min 36 sec) 
Heartbeat CPU  0 instructions:   99000003 cycles:   49667617 heartbeat IPC: 2.37929 cumulative IPC: 1.99325 (Simulation time: 0 hr 1 min 37 sec) 
Heartbeat CPU  0 instructions:  100000000 cycles:   50087902 heartbeat IPC: 2.37933 cumulative IPC: 1.99649 (Simulation time: 0 hr 1 min 38 sec) 

Warmup complete CPU  0 instructions:  100000001 cycles:   50087904 (Simulation time: 0 hr 1 min 38 sec) 

Heartbeat CPU  0 instructions:  101000003 cycles:   51236217 heartbeat IPC: 0.87084 cumulative IPC: 0.87084 (Simulation time: 0 hr 1 min 39 sec) 
Heartbeat CPU  0 instructions:  102000003 cycles:   52397355 heartbeat IPC: 0.86122 cumulative IPC: 0.86601 (Simulation time: 0 hr 1 min 40 sec) 
Heartbeat CPU  0 instructions:  103000001 cycles:   53548327 heartbeat IPC: 0.86883 cumulative IPC: 0.86695 (Simulation time: 0 hr 1 min 42 sec) 
Heartbeat CPU  0 instructions:  104000000 cycles:   54706872 heartbeat IPC: 0.86315 cumulative IPC: 0.86599 (Simulation time: 0 hr 1 min 43 sec) 
Heartbeat CPU  0 instructions:  105000000 cycles:   55865841 heartbeat IPC: 0.86284 cumulative IPC: 0.86536 (Simulation time: 0 hr 1 min 45 sec) 
Heartbeat CPU  0 instructions:  106000002 cycles:   57021039 heartbeat IPC: 0.86565 cumulative IPC: 0.86541 (Simulation time: 0 hr 1 min 46 sec) 
Heartbeat CPU  0 instructions:  107000001 cycles:   58186462 heartbeat IPC: 0.85806 cumulative IPC: 0.86435 (Simulation time: 0 hr 1 min 47 sec) 
Heartbeat CPU  0 instructions:  108000000 cycles:   59326806 heartbeat IPC: 0.87693 cumulative IPC: 0.86590 (Simulation time: 0 hr 1 min 49 sec) 
Heartbeat CPU  0 instructions:  109000000 cycles:   60529958 heartbeat IPC: 0.83115 cumulative IPC: 0.86190 (Simulation time: 0 hr 1 min 50 sec) 
Heartbeat CPU  0 instructions:  110000001 cycles:   61761791 heartbeat IPC: 0.81180 cumulative IPC: 0.85661 (Simulation time: 0 hr 1 min 52 sec) 
Heartbeat CPU  0 instructions:  111000001 cycles:   63014294 heartbeat IPC: 0.79840 cumulative IPC: 0.85097 (Simulation time: 0 hr 1 min 53 sec) 
Heartbeat CPU  0 instructions:  112000000 cycles:   64242135 heartbeat IPC: 0.81444 cumulative IPC: 0.84780 (Simulation time: 0 hr 1 min 55 sec) 
Heartbeat CPU  0 instructions:  113000002 cycles:   65492168 heartbeat IPC: 0.79998 cumulative IPC: 0.84392 (Simulation time: 0 hr 1 min 56 sec) 
Heartbeat CPU  0 instructions:  114000002 cycles:   66734113 heartbeat IPC: 0.80519 cumulative IPC: 0.84103 (Simulation time: 0 hr 1 min 57 sec) 
Heartbeat CPU  0 instructions:  115000003 cycles:   67950944 heartbeat IPC: 0.82181 cumulative IPC: 0.83972 (Simulation time: 0 hr 1 min 59 sec) 
Heartbeat CPU  0 instructions:  116000000 cycles:   69207620 heartbeat IPC: 0.79575 cumulative IPC: 0.83683 (Simulation time: 0 hr 2 min 0 sec) 
Heartbeat CPU  0 instructions:  117000000 cycles:   70444583 heartbeat IPC: 0.80843 cumulative IPC: 0.83511 (Simulation time: 0 hr 2 min 2 sec) 
Heartbeat CPU  0 instructions:  118000000 cycles:   71678578 heartbeat IPC: 0.81038 cumulative IPC: 0.83369 (Simulation time: 0 hr 2 min 3 sec) 
Heartbeat CPU  0 instructions:  119000001 cycles:   72923369 heartbeat IPC: 0.80335 cumulative IPC: 0.83204 (Simulation time: 0 hr 2 min 4 sec) 
Heartbeat CPU  0 instructions:  120000000 cycles:   74148286 heartbeat IPC: 0.81638 cumulative IPC: 0.83124 (Simulation time: 0 hr 2 min 6 sec) 
Heartbeat CPU  0 instructions:  121000000 cycles:   75397061 heartbeat IPC: 0.80078 cumulative IPC: 0.82974 (Simulation time: 0 hr 2 min 7 sec) 
Heartbeat CPU  0 instructions:  122000002 cycles:   76639620 heartbeat IPC: 0.80479 cumulative IPC: 0.82857 (Simulation time: 0 hr 2 min 9 sec) 
Heartbeat CPU  0 instructions:  123000002 cycles:   77868075 heartbeat IPC: 0.81403 cumulative IPC: 0.82793 (Simulation time: 0 hr 2 min 10 sec) 
Heartbeat CPU  0 instructions:  124000000 cycles:   79123313 heartbeat IPC: 0.79666 cumulative IPC: 0.82658 (Simulation time: 0 hr 2 min 12 sec) 
Heartbeat CPU  0 instructions:  125000003 cycles:   80351990 heartbeat IPC: 0.81389 cumulative IPC: 0.82606 (Simulation time: 0 hr 2 min 13 sec) 
Heartbeat CPU  0 instructions:  126000000 cycles:   81590694 heartbeat IPC: 0.80729 cumulative IPC: 0.82532 (Simulation time: 0 hr 2 min 14 sec) 
Heartbeat CPU  0 instructions:  127000000 cycles:   82831397 heartbeat IPC: 0.80599 cumulative IPC: 0.82459 (Simulation time: 0 hr 2 min 16 sec) 
Heartbeat CPU  0 instructions:  128000000 cycles:   84057011 heartbeat IPC: 0.81592 cumulative IPC: 0.82428 (Simulation time: 0 hr 2 min 17 sec) 
Heartbeat CPU  0 instructions:  129000001 cycles:   85312364 heartbeat IPC: 0.79659 cumulative IPC: 0.82329 (Simulation time: 0 hr 2 min 19 sec) 
Heartbeat CPU  0 instructions:  130000001 cycles:   86546052 heartbeat IPC: 0.81058 cumulative IPC: 0.82286 (Simulation time: 0 hr 2 min 20 sec) 
Heartbeat CPU  0 instructions:  131000000 cycles:   88102946 heartbeat IPC: 0.64230 cumulative IPC: 0.81547 (Simulation time: 0 hr 2 min 22 sec) 
Heartbeat CPU  0 instructions:  132000000 cycles:   90562335 heartbeat IPC: 0.40661 cumulative IPC: 0.79062 (Simulation time: 0 hr 2 min 24 sec) 
Heartbeat CPU  0 instructions:  133000000 cycles:   93007868 heartbeat IPC: 0.40891 cumulative IPC: 0.76887 (Simulation time: 0 hr 2 min 26 sec) 
Heartbeat CPU  0 instructions:  134000000 cycles:   95466212 heartbeat IPC: 0.40678 cumulative IPC: 0.74926 (Simulation time: 0 hr 2 min 29 sec) 
Heartbeat CPU  0 instructions:  135000000 cycles:   97914757 heartbeat IPC: 0.40841 cumulative IPC: 0.73181 (Simulation time: 0 hr 2 min 31 sec) 
Heartbeat CPU  0 instructions:  136000000 cycles:  100363736 heartbeat IPC: 0.40833 cumulative IPC: 0.71605 (Simulation time: 0 hr 2 min 33 sec) 
Heartbeat CPU  0 instructions:  137000000 cycles:  102818897 heartbeat IPC: 0.40731 cumulative IPC: 0.70167 (Simulation time: 0 hr 2 min 35 sec) 
Heartbeat CPU  0 instructions:  138000000 cycles:  105273419 heartbeat IPC: 0.40741 cumulative IPC: 0.68859 (Simulation time: 0 hr 2 min 37 sec) 
Heartbeat CPU  0 instructions:  139000000 cycles:  107724171 heartbeat IPC: 0.40804 cumulative IPC: 0.67666 (Simulation time: 0 hr 2 min 40 sec) 
Heartbeat CPU  0 instructions:  140000000 cycles:  110177249 heartbeat IPC: 0.40765 cumulative IPC: 0.66568 (Simulation time: 0 hr 2 min 42 sec) 
Heartbeat CPU  0 instructions:  141000000 cycles:  112630213 heartbeat IPC: 0.40767 cumulative IPC: 0.65556 (Simulation time: 0 hr 2 min 44 sec) 
Heartbeat CPU  0 instructions:  142000000 cycles:  115078862 heartbeat IPC: 0.40839 cumulative IPC: 0.64624 (Simulation time: 0 hr 2 min 46 sec) 
Heartbeat CPU  0 instructions:  143000000 cycles:  117528044 heartbeat IPC: 0.40830 cumulative IPC: 0.63760 (Simulation time: 0 hr 2 min 49 sec) 
Heartbeat CPU  0 instructions:  144000000 cycles:  119980975 heartbeat IPC: 0.40768 cumulative IPC: 0.62953 (Simulation time: 0 hr 2 min 51 sec) 
Heartbeat CPU  0 instructions:  145000002 cycles:  122237253 heartbeat IPC: 0.44321 cumulative IPC: 0.62371 (Simulation time: 0 hr 2 min 53 sec) 
Heartbeat CPU  0 instructions:  146000000 cycles:  123926737 heartbeat IPC: 0.59190 cumulative IPC: 0.62298 (Simulation time: 0 hr 2 min 55 sec) 
Heartbeat CPU  0 instructions:  147000000 cycles:  125342106 heartbeat IPC: 0.70653 cumulative IPC: 0.62455 (Simulation time: 0 hr 2 min 56 sec) 
Heartbeat CPU  0 instructions:  148000000 cycles:  126826624 heartbeat IPC: 0.67362 cumulative IPC: 0.62550 (Simulation time: 0 hr 2 min 58 sec) 
Heartbeat CPU  0 instructions:  149000000 cycles:  128197224 heartbeat IPC: 0.72961 cumulative IPC: 0.62733 (Simulation time: 0 hr 2 min 59 sec) 
Heartbeat CPU  0 instructions:  150000001 cycles:  129421107 heartbeat IPC: 0.81707 cumulative IPC: 0.63025 (Simulation time: 0 hr 3 min 1 sec) 
Heartbeat CPU  0 instructions:  151000001 cycles:  130576306 heartbeat IPC: 0.86565 cumulative IPC: 0.63363 (Simulation time: 0 hr 3 min 2 sec) 
Heartbeat CPU  0 instructions:  152000000 cycles:  131734607 heartbeat IPC: 0.86333 cumulative IPC: 0.63689 (Simulation time: 0 hr 3 min 4 sec) 
Heartbeat CPU  0 instructions:  153000001 cycles:  132893516 heartbeat IPC: 0.86288 cumulative IPC: 0.64005 (Simulation time: 0 hr 3 min 5 sec) 
Heartbeat CPU  0 instructions:  154000003 cycles:  134041552 heartbeat IPC: 0.87105 cumulative IPC: 0.64321 (Simulation time: 0 hr 3 min 6 sec) 
Heartbeat CPU  0 instructions:  155000001 cycles:  135209123 heartbeat IPC: 0.85648 cumulative IPC: 0.64614 (Simulation time: 0 hr 3 min 8 sec) 
Heartbeat CPU  0 instructions:  156000000 cycles:  136366833 heartbeat IPC: 0.86377 cumulative IPC: 0.64906 (Simulation time: 0 hr 3 min 9 sec) 
Heartbeat CPU  0 instructions:  157000002 cycles:  137518878 heartbeat IPC: 0.86802 cumulative IPC: 0.65194 (Simulation time: 0 hr 3 min 11 sec) 
Heartbeat CPU  0 instructions:  158000000 cycles:  138684938 heartbeat IPC: 0.85759 cumulative IPC: 0.65465 (Simulation time: 0 hr 3 min 12 sec) 
Heartbeat CPU  0 instructions:  159000002 cycles:  139832803 heartbeat IPC: 0.87118 cumulative IPC: 0.65742 (Simulation time: 0 hr 3 min 14 sec) 
Heartbeat CPU  0 instructions:  160000000 cycles:  140984868 heartbeat IPC: 0.86800 cumulative IPC: 0.66009 (Simulation time: 0 hr 3 min 15 sec) 
Heartbeat CPU  0 instructions:  161000000 cycles:  142151056 heartbeat IPC: 0.85749 cumulative IPC: 0.66259 (Simulation time: 0 hr 3 min 16 sec) 
Heartbeat CPU  0 instructions:  162000002 cycles:  143300425 heartbeat IPC: 0.87004 cumulative IPC: 0.66515 (Simulation time: 0 hr 3 min 18 sec) 
Heartbeat CPU  0 instructions:  163000000 cycles:  144468248 heartbeat IPC: 0.85629 cumulative IPC: 0.66751 (Simulation time: 0 hr 3 min 19 sec) 
Heartbeat CPU  0 instructions:  164000000 cycles:  145629132 heartbeat IPC: 0.86141 cumulative IPC: 0.66987 (Simulation time: 0 hr 3 min 21 sec) 
Heartbeat CPU  0 instructions:  165000001 cycles:  146783072 heartbeat IPC: 0.86660 cumulative IPC: 0.67222 (Simulation time: 0 hr 3 min 22 sec) 
Heartbeat CPU  0 instructions:  166000003 cycles:  147944350 heartbeat IPC: 0.86112 cumulative IPC: 0.67446 (Simulation time: 0 hr 3 min 24 sec) 
Heartbeat CPU  0 instructions:  167000001 cycles:  149098856 heartbeat IPC: 0.86617 cumulative IPC: 0.67669 (Simulation time: 0 hr 3 min 25 sec) 
Heartbeat CPU  0 instructions:  168000000 cycles:  150264942 heartbeat IPC: 0.85757 cumulative IPC: 0.67880 (Simulation time: 0 hr 3 min 26 sec) 
Heartbeat CPU  0 instructions:  169000000 cycles:  151435319 heartbeat IPC: 0.85443 cumulative IPC: 0.68083 (Simulation time: 0 hr 3 min 28 sec) 
Heartbeat CPU  0 instructions:  170000003 cycles:  152709255 heartbeat IPC: 0.78497 cumulative IPC: 0.68212 (Simulation time: 0 hr 3 min 29 sec) 
Heartbeat CPU  0 instructions:  171000001 cycles:  154002989 heartbeat IPC: 0.77295 cumulative IPC: 0.68325 (Simulation time: 0 hr 3 min 31 sec) 
Heartbeat CPU  0 instructions:  172000000 cycles:  155315840 heartbeat IPC: 0.76170 cumulative IPC: 0.68423 (Simulation time: 0 hr 3 min 33 sec) 
Heartbeat CPU  0 instructions:  173000001 cycles:  156617696 heartbeat IPC: 0.76813 cumulative IPC: 0.68525 (Simulation time: 0 hr 3 min 34 sec) 
Heartbeat CPU  0 instructions:  174000000 cycles:  157926572 heartbeat IPC: 0.76401 cumulative IPC: 0.68621 (Simulation time: 0 hr 3 min 36 sec) 
Heartbeat CPU  0 instructions:  175000002 cycles:  159225794 heartbeat IPC: 0.76969 cumulative IPC: 0.68720 (Simulation time: 0 hr 3 min 37 sec) 
Heartbeat CPU  0 instructions:  176000000 cycles:  160508168 heartbeat IPC: 0.77980 cumulative IPC: 0.68828 (Simulation time: 0 hr 3 min 39 sec) 
Heartbeat CPU  0 instructions:  177000002 cycles:  161821299 heartbeat IPC: 0.76154 cumulative IPC: 0.68914 (Simulation time: 0 hr 3 min 40 sec) 
Heartbeat CPU  0 instructions:  178000000 cycles:  163128758 heartbeat IPC: 0.76484 cumulative IPC: 0.69002 (Simulation time: 0 hr 3 min 42 sec) 
Heartbeat CPU  0 instructions:  179000003 cycles:  164429620 heartbeat IPC: 0.76872 cumulative IPC: 0.69091 (Simulation time: 0 hr 3 min 43 sec) 
Heartbeat CPU  0 instructions:  180000000 cycles:  165744846 heartbeat IPC: 0.76032 cumulative IPC: 0.69170 (Simulation time: 0 hr 3 min 45 sec) 
Heartbeat CPU  0 instructions:  181000000 cycles:  167033435 heartbeat IPC: 0.77604 cumulative IPC: 0.69263 (Simulation time: 0 hr 3 min 46 sec) 
Heartbeat CPU  0 instructions:  182000001 cycles:  168334328 heartbeat IPC: 0.76870 cumulative IPC: 0.69347 (Simulation time: 0 hr 3 min 48 sec) 
Heartbeat CPU  0 instructions:  183000000 cycles:  169638823 heartbeat IPC: 0.76658 cumulative IPC: 0.69426 (Simulation time: 0 hr 3 min 49 sec) 
Heartbeat CPU  0 instructions:  184000000 cycles:  170931167 heartbeat IPC: 0.77379 cumulative IPC: 0.69512 (Simulation time: 0 hr 3 min 51 sec) 
Heartbeat CPU  0 instructions:  185000001 cycles:  172248933 heartbeat IPC: 0.75886 cumulative IPC: 0.69580 (Simulation time: 0 hr 3 min 52 sec) 
Heartbeat CPU  0 instructions:  186000002 cycles:  173550223 heartbeat IPC: 0.76847 cumulative IPC: 0.69657 (Simulation time: 0 hr 3 min 54 sec) 
Heartbeat CPU  0 instructions:  187000000 cycles:  174831286 heartbeat IPC: 0.78060 cumulative IPC: 0.69743 (Simulation time: 0 hr 3 min 55 sec) 
Heartbeat CPU  0 instructions:  188000000 cycles:  176142917 heartbeat IPC: 0.76241 cumulative IPC: 0.69811 (Simulation time: 0 hr 3 min 57 sec) 
Heartbeat CPU  0 instructions:  189000001 cycles:  177436907 heartbeat IPC: 0.77280 cumulative IPC: 0.69887 (Simulation time: 0 hr 3 min 58 sec) 
Heartbeat CPU  0 instructions:  190000000 cycles:  178743004 heartbeat IPC: 0.76564 cumulative IPC: 0.69954 (Simulation time: 0 hr 4 min 0 sec) 
Heartbeat CPU  0 instructions:  191000000 cycles:  180068158 heartbeat IPC: 0.75463 cumulative IPC: 0.70011 (Simulation time: 0 hr 4 min 1 sec) 
Heartbeat CPU  0 instructions:  192000000 cycles:  181739039 heartbeat IPC: 0.59849 cumulative IPC: 0.69882 (Simulation time: 0 hr 4 min 3 sec) 
Heartbeat CPU  0 instructions:  193000000 cycles:  184258303 heartbeat IPC: 0.39694 cumulative IPC: 0.69315 (Simulation time: 0 hr 4 min 5 sec) 
Heartbeat CPU  0 instructions:  194000000 cycles:  186786503 heartbeat IPC: 0.39554 cumulative IPC: 0.68764 (Simulation time: 0 hr 4 min 8 sec) 
Heartbeat CPU  0 instructions:  195000002 cycles:  189316314 heartbeat IPC: 0.39529 cumulative IPC: 0.68233 (Simulation time: 0 hr 4 min 10 sec) 
Heartbeat CPU  0 instructions:  196000000 cycles:  191840466 heartbeat IPC: 0.39617 cumulative IPC: 0.67724 (Simulation time: 0 hr 4 min 12 sec) 
Heartbeat CPU  0 instructions:  197000000 cycles:  194366786 heartbeat IPC: 0.39583 cumulative IPC: 0.67231 (Simulation time: 0 hr 4 min 14 sec) 
Heartbeat CPU  0 instructions:  198000000 cycles:  196896851 heartbeat IPC: 0.39525 cumulative IPC: 0.66753 (Simulation time: 0 hr 4 min 16 sec) 
Heartbeat CPU  0 instructions:  199000000 cycles:  199430542 heartbeat IPC: 0.39468 cumulative IPC: 0.66291 (Simulation time: 0 hr 4 min 19 sec) 
Heartbeat CPU  0 instructions:  200000000 cycles:  201960458 heartbeat IPC: 0.39527 cumulative IPC: 0.65845 (Simulation time: 0 hr 4 min 21 sec) 
Finished CPU 0 instructions: 100000000 cycles: 151872567 cumulative IPC: 0.65845 (Simulation time: 0 hr 4 min 21 sec) 

ChampSim completed all CPUs

[ROI Statistics]
Core_0_instructions 100000000
Core_0_cycles 151872567
Core_0_IPC 0.65845

Core_0_branch_prediction_accuracy 99.58952
Core_0_branch_MPKI 0.70683
Core_0_average_ROB_occupancy_at_mispredict 218.78910

Core_0_L1D_total_access 21593933
Core_0_L1D_total_hit 19017695
Core_0_L1D_total_miss 2576238
Core_0_L1D_loads 10576914
Core_0_L1D_load_hit 8717246
Core_0_L1D_load_miss 1859668
Core_0_L1D_RFOs 3492975
Core_0_L1D_RFO_hit 3492955
Core_0_L1D_RFO_miss 20
Core_0_L1D_prefetches 7524044
Core_0_L1D_prefetch_hit 6807494
Core_0_L1D_prefetch_miss 716550
Core_0_L1D_writebacks 0
Core_0_L1D_writeback_hit 0
Core_0_L1D_writeback_miss 0
Core_0_L1D_prefetch_requested 41736123
Core_0_L1D_prefetch_issued 41474225
Core_0_L1D_prefetch_useful 3139314
Core_0_L1D_prefetch_useless 30
Core_0_L1D_prefetch_late 1718403
Core_0_L1D_average_miss_latency 82742187.83003

Core_0_L1I_total_access 31955618
Core_0_L1I_total_hit 31955617
Core_0_L1I_total_miss 1
Core_0_L1I_loads 31955618
Core_0_L1I_load_hit 31955617
Core_0_L1I_load_miss 1
Core_0_L1I_RFOs 0
Core_0_L1I_RFO_hit 0
Core_0_L1I_RFO_miss 0
Core_0_L1I_prefetches 0
Core_0_L1I_prefetch_hit 0
Core_0_L1I_prefetch_miss 0
Core_0_L1I_writebacks 0
Core_0_L1I_writeback_hit 0
Core_0_L1I_writeback_miss 0
Core_0_L1I_prefetch_requested 0
Core_0_L1I_prefetch_issued 0
Core_0_L1I_prefetch_useful 0
Core_0_L1I_prefetch_useless 0
Core_0_L1I_prefetch_late 0
Core_0_L1I_average_miss_latency 261.00000

Core_0_L2C_total_access 4092063
Core_0_L2C_total_hit 1515818
Core_0_L2C_total_miss 2576245
Core_0_L2C_loads 165949
Core_0_L2C_load_hit 11534
Core_0_L2C_load_miss 154415
Core_0_L2C_RFOs 20
Core_0_L2C_RFO_hit 0
Core_0_L2C_RFO_miss 20
Core_0_L2C_prefetches 2975948
Core_0_L2C_prefetch_hit 554138
Core_0_L2C_prefetch_miss 2421810
Core_0_L2C_writebacks 950146
Core_0_L2C_writeback_hit 950146
Core_0_L2C_writeback_miss 0
Core_0_L2C_prefetch_requested 9789979
Core_0_L2C_prefetch_issued 9789979
Core_0_L2C_prefetch_useful 167290
Core_0_L2C_prefetch_useless 4850591
Core_0_L2C_prefetch_late 72366
Core_0_L2C_average_miss_latency 186.12351

Core_0_LLC_total_access 3518949
Core_0_LLC_total_hit 650409
Core_0_LLC_total_miss 2868540
Core_0_LLC_loads 82049
Core_0_LLC_load_hit 0
Core_0_LLC_load_miss 82049
Core_0_LLC_RFOs 20
Core_0_LLC_RFO_hit 0
Core_0_LLC_RFO_miss 20
Core_0_LLC_prefetches 2494177
Core_0_LLC_prefetch_hit 0
Core_0_LLC_prefetch_miss 2494177
Core_0_LLC_writebacks 942703
Core_0_LLC_writeback_hit 650409
Core_0_LLC_writeback_miss 292294
Core_0_LLC_prefetch_requested 0
Core_0_LLC_prefetch_issued 0
Core_0_LLC_prefetch_useful 0
Core_0_LLC_prefetch_useless 5068140
Core_0_LLC_prefetch_late 0
Core_0_LLC_average_miss_latency 140.40400

Core_0_major_page_fault 0
Core_0_minor_page_fault 8199

CPU 0 L1D next line prefetcher final stats
CPU 0 L2C PC-based stride prefetcher final stats
Channel_0_RQ_row_buffer_hit 1550406
Channel_0_RQ_row_buffer_miss 1025841
Channel_0_WQ_row_buffer_hit 442164
Channel_0_WQ_row_buffer_miss 475996
Channel_0_WQ_full 0
Channel_0_dbus_congested 2355586

avg_congested_cycle 10
