*************************************************
   ChampSim Multicore Out-of-Order Simulator
   Last compiled: Dec 21 2023 20:57:12
*************************************************

trace_0 ./test_trace/462.libquantum-714B.champsimtrace.xz
Initialize DRRIP state
Assign rand_sets[0]: 454  LLC: 2048
rand_sets[0]: 454
Assign rand_sets[1]: 1662  LLC: 2048
rand_sets[1]: 1662
Assign rand_sets[2]: 1921  LLC: 2048
rand_sets[2]: 1921
Assign rand_sets[3]: 1131  LLC: 2048
rand_sets[3]: 1131
Assign rand_sets[4]: 331  LLC: 2048
rand_sets[4]: 331
Assign rand_sets[5]: 1531  LLC: 2048
rand_sets[5]: 1531
Assign rand_sets[6]: 482  LLC: 2048
rand_sets[6]: 482
Assign rand_sets[7]: 1275  LLC: 2048
rand_sets[7]: 1275
Assign rand_sets[8]: 1876  LLC: 2048
rand_sets[8]: 1876
Assign rand_sets[9]: 2038  LLC: 2048
rand_sets[9]: 2038
Assign rand_sets[10]: 701  LLC: 2048
rand_sets[10]: 701
Assign rand_sets[11]: 479  LLC: 2048
rand_sets[11]: 479
Assign rand_sets[12]: 892  LLC: 2048
rand_sets[12]: 892
Assign rand_sets[13]: 1820  LLC: 2048
rand_sets[13]: 1820
Assign rand_sets[14]: 1505  LLC: 2048
rand_sets[14]: 1505
Assign rand_sets[15]: 1159  LLC: 2048
rand_sets[15]: 1159
Assign rand_sets[16]: 513  LLC: 2048
rand_sets[16]: 513
Assign rand_sets[17]: 703  LLC: 2048
rand_sets[17]: 703
Assign rand_sets[18]: 561  LLC: 2048
rand_sets[18]: 561
Assign rand_sets[19]: 990  LLC: 2048
rand_sets[19]: 990
Assign rand_sets[20]: 342  LLC: 2048
rand_sets[20]: 342
Assign rand_sets[21]: 882  LLC: 2048
rand_sets[21]: 882
Assign rand_sets[22]: 15  LLC: 2048
rand_sets[22]: 15
Assign rand_sets[23]: 71  LLC: 2048
rand_sets[23]: 71
Assign rand_sets[24]: 1127  LLC: 2048
rand_sets[24]: 1127
Assign rand_sets[25]: 1382  LLC: 2048
rand_sets[25]: 1382
Assign rand_sets[26]: 647  LLC: 2048
rand_sets[26]: 647
Assign rand_sets[27]: 857  LLC: 2048
rand_sets[27]: 857
Assign rand_sets[28]: 1450  LLC: 2048
rand_sets[28]: 1450
Assign rand_sets[29]: 1160  LLC: 2048
rand_sets[29]: 1160
Assign rand_sets[30]: 1852  LLC: 2048
rand_sets[30]: 1852
Assign rand_sets[31]: 1881  LLC: 2048
rand_sets[31]: 1881
Assign rand_sets[32]: 1770  LLC: 2048
rand_sets[32]: 1770
Assign rand_sets[33]: 1622  LLC: 2048
rand_sets[33]: 1622
Assign rand_sets[34]: 275  LLC: 2048
rand_sets[34]: 275
Assign rand_sets[35]: 635  LLC: 2048
rand_sets[35]: 635
Assign rand_sets[36]: 466  LLC: 2048
rand_sets[36]: 466
Assign rand_sets[37]: 1413  LLC: 2048
rand_sets[37]: 1413
Assign rand_sets[38]: 417  LLC: 2048
rand_sets[38]: 417
Assign rand_sets[39]: 472  LLC: 2048
rand_sets[39]: 472
Assign rand_sets[40]: 1340  LLC: 2048
rand_sets[40]: 1340
Assign rand_sets[41]: 852  LLC: 2048
rand_sets[41]: 852
Assign rand_sets[42]: 1365  LLC: 2048
rand_sets[42]: 1365
Assign rand_sets[43]: 47  LLC: 2048
rand_sets[43]: 47
Assign rand_sets[44]: 823  LLC: 2048
rand_sets[44]: 823
Assign rand_sets[45]: 686  LLC: 2048
rand_sets[45]: 686
Assign rand_sets[46]: 1637  LLC: 2048
rand_sets[46]: 1637
Assign rand_sets[47]: 1115  LLC: 2048
rand_sets[47]: 1115
Assign rand_sets[48]: 986  LLC: 2048
rand_sets[48]: 986
Assign rand_sets[49]: 258  LLC: 2048
rand_sets[49]: 258
Assign rand_sets[50]: 633  LLC: 2048
rand_sets[50]: 633
Assign rand_sets[51]: 920  LLC: 2048
rand_sets[51]: 920
Assign rand_sets[52]: 204  LLC: 2048
rand_sets[52]: 204
Assign rand_sets[53]: 227  LLC: 2048
rand_sets[53]: 227
Assign rand_sets[54]: 1818  LLC: 2048
rand_sets[54]: 1818
Assign rand_sets[55]: 886  LLC: 2048
rand_sets[55]: 886
Assign rand_sets[56]: 1422  LLC: 2048
rand_sets[56]: 1422
Assign rand_sets[57]: 607  LLC: 2048
rand_sets[57]: 607
Assign rand_sets[58]: 217  LLC: 2048
rand_sets[58]: 217
Assign rand_sets[59]: 1945  LLC: 2048
rand_sets[59]: 1945
Assign rand_sets[60]: 143  LLC: 2048
rand_sets[60]: 143
Assign rand_sets[61]: 1311  LLC: 2048
rand_sets[61]: 1311
Assign rand_sets[62]: 319  LLC: 2048
rand_sets[62]: 319
Assign rand_sets[63]: 1846  LLC: 2048
rand_sets[63]: 1846
warmup_instructions 100000000
simulation_instructions 100000000
champsim_seed 222

num_cpus 1
cpu_freq 4000
dram_io_freq 2400
page_size 4096
block_size 64
max_read_per_cycle 8
max_fill_per_cycle 1
dram_channels 1
dram_ranks 1
dram_banks 8
dram_rows 65536
dram_columns 128
dram_row_size 8
dram_size 4096
dram_pages 1048576

fetch_width 6
decode_width 6
exec_width 4
lq_width 2
sq_width 2
retire_width 4
scheduler_size 128
branch_mispredict_penalty 20
rob_size 256
lq_size 72
sq_size 56
num_instr_destinations_sparc 4
num_instr_destinations 2
num_instr_sources 4

itlb_set 16
itlb_way 8
itlb_rq_size 16
itlb_wq_size 16
itlb_pq_size 0
itlb_mshr_size 8
itlb_latency 1

dtlb_set 16
dtlb_way 4
dtlb_rq_size 16
dtlb_wq_size 16
dtlb_pq_size 0
dtlb_mshr_size 8
dtlb_latency 1

stlb_set 128
stlb_way 12
stlb_rq_size 32
stlb_wq_size 32
stlb_pq_size 0
stlb_mshr_size 16
stlb_latency 8

l1i_size 32
l1i_set 64
l1i_way 8
l1i_rq_size 64
l1i_wq_size 64
l1i_pq_size 8
l1i_mshr_size 8
l1i_latency 1

l1d_size 32
l1d_set 64
l1d_way 8
l1d_rq_size 64
l1d_wq_size 64
l1d_pq_size 8
l1d_mshr_size 16
l1d_latency 4

l2c_size 512
l2c_set 1024
l2c_way 8
l2c_rq_size 32
l2c_wq_size 32
l2c_pq_size 16
l2c_mshr_size 32
l2c_latency 10

llc_size 2048
llc_set 2048
llc_way 16
llc_rq_size 32
llc_wq_size 32
llc_pq_size 32
llc_mshr_size 64
llc_latency 20

dram_channel_width 8
dram_wq_size 64
dram_rq_size 64
tRP 15
tRCD 15
tCAS 12.5
dram_dbus_turn_around_time 30
dram_write_high_wm 56
dram_write_low_wm 48
min_dram_writes_per_switch 16
dram_mtps 2400
dram_dbus_return_time 13


Heartbeat CPU  0 instructions:    1000000 cycles:     443024 heartbeat IPC: 2.25721 cumulative IPC: 2.25721 (Simulation time: 0 hr 0 min 1 sec) 
Heartbeat CPU  0 instructions:    2000003 cycles:     886209 heartbeat IPC: 2.25640 cumulative IPC: 2.25681 (Simulation time: 0 hr 0 min 2 sec) 
Heartbeat CPU  0 instructions:    3000003 cycles:    1329387 heartbeat IPC: 2.25643 cumulative IPC: 2.25668 (Simulation time: 0 hr 0 min 2 sec) 
Heartbeat CPU  0 instructions:    4000000 cycles:    1772567 heartbeat IPC: 2.25641 cumulative IPC: 2.25661 (Simulation time: 0 hr 0 min 3 sec) 
Heartbeat CPU  0 instructions:    5000000 cycles:    2215750 heartbeat IPC: 2.25640 cumulative IPC: 2.25657 (Simulation time: 0 hr 0 min 4 sec) 
Heartbeat CPU  0 instructions:    6000003 cycles:    2658936 heartbeat IPC: 2.25640 cumulative IPC: 2.25654 (Simulation time: 0 hr 0 min 5 sec) 
Heartbeat CPU  0 instructions:    7000003 cycles:    3102118 heartbeat IPC: 2.25641 cumulative IPC: 2.25652 (Simulation time: 0 hr 0 min 5 sec) 
Heartbeat CPU  0 instructions:    8000000 cycles:    3545298 heartbeat IPC: 2.25641 cumulative IPC: 2.25651 (Simulation time: 0 hr 0 min 6 sec) 
Heartbeat CPU  0 instructions:    9000000 cycles:    4041094 heartbeat IPC: 2.01696 cumulative IPC: 2.22712 (Simulation time: 0 hr 0 min 8 sec) 
Heartbeat CPU  0 instructions:   10000000 cycles:    4552796 heartbeat IPC: 1.95426 cumulative IPC: 2.19645 (Simulation time: 0 hr 0 min 9 sec) 
Heartbeat CPU  0 instructions:   11000003 cycles:    5064518 heartbeat IPC: 1.95419 cumulative IPC: 2.17197 (Simulation time: 0 hr 0 min 10 sec) 
Heartbeat CPU  0 instructions:   12000000 cycles:    5576220 heartbeat IPC: 1.95426 cumulative IPC: 2.15200 (Simulation time: 0 hr 0 min 11 sec) 
Heartbeat CPU  0 instructions:   13000000 cycles:    6087970 heartbeat IPC: 1.95408 cumulative IPC: 2.13536 (Simulation time: 0 hr 0 min 13 sec) 
Heartbeat CPU  0 instructions:   14000000 cycles:    6599672 heartbeat IPC: 1.95426 cumulative IPC: 2.12132 (Simulation time: 0 hr 0 min 14 sec) 
Heartbeat CPU  0 instructions:   15000003 cycles:    7111394 heartbeat IPC: 1.95419 cumulative IPC: 2.10929 (Simulation time: 0 hr 0 min 15 sec) 
Heartbeat CPU  0 instructions:   16000000 cycles:    7623096 heartbeat IPC: 1.95426 cumulative IPC: 2.09888 (Simulation time: 0 hr 0 min 17 sec) 
Heartbeat CPU  0 instructions:   17000000 cycles:    8134847 heartbeat IPC: 1.95408 cumulative IPC: 2.08978 (Simulation time: 0 hr 0 min 18 sec) 
Heartbeat CPU  0 instructions:   18000000 cycles:    8646549 heartbeat IPC: 1.95426 cumulative IPC: 2.08176 (Simulation time: 0 hr 0 min 19 sec) 
Heartbeat CPU  0 instructions:   19000003 cycles:    9158269 heartbeat IPC: 1.95420 cumulative IPC: 2.07463 (Simulation time: 0 hr 0 min 21 sec) 
Heartbeat CPU  0 instructions:   20000000 cycles:    9669971 heartbeat IPC: 1.95426 cumulative IPC: 2.06826 (Simulation time: 0 hr 0 min 22 sec) 
Heartbeat CPU  0 instructions:   21000000 cycles:   10181722 heartbeat IPC: 1.95408 cumulative IPC: 2.06252 (Simulation time: 0 hr 0 min 23 sec) 
Heartbeat CPU  0 instructions:   22000000 cycles:   10693424 heartbeat IPC: 1.95426 cumulative IPC: 2.05734 (Simulation time: 0 hr 0 min 25 sec) 
Heartbeat CPU  0 instructions:   23000000 cycles:   11196562 heartbeat IPC: 1.98753 cumulative IPC: 2.05420 (Simulation time: 0 hr 0 min 26 sec) 
Heartbeat CPU  0 instructions:   24000000 cycles:   11602737 heartbeat IPC: 2.46199 cumulative IPC: 2.06848 (Simulation time: 0 hr 0 min 27 sec) 
Heartbeat CPU  0 instructions:   25000003 cycles:   12008916 heartbeat IPC: 2.46198 cumulative IPC: 2.08179 (Simulation time: 0 hr 0 min 27 sec) 
Heartbeat CPU  0 instructions:   26000000 cycles:   12415103 heartbeat IPC: 2.46191 cumulative IPC: 2.09422 (Simulation time: 0 hr 0 min 28 sec) 
Heartbeat CPU  0 instructions:   27000000 cycles:   12821298 heartbeat IPC: 2.46187 cumulative IPC: 2.10587 (Simulation time: 0 hr 0 min 29 sec) 
Heartbeat CPU  0 instructions:   28000000 cycles:   13227481 heartbeat IPC: 2.46194 cumulative IPC: 2.11681 (Simulation time: 0 hr 0 min 30 sec) 
Heartbeat CPU  0 instructions:   29000001 cycles:   13633644 heartbeat IPC: 2.46207 cumulative IPC: 2.12709 (Simulation time: 0 hr 0 min 30 sec) 
Heartbeat CPU  0 instructions:   30000003 cycles:   14039828 heartbeat IPC: 2.46194 cumulative IPC: 2.13678 (Simulation time: 0 hr 0 min 31 sec) 
Heartbeat CPU  0 instructions:   31000001 cycles:   14446021 heartbeat IPC: 2.46188 cumulative IPC: 2.14592 (Simulation time: 0 hr 0 min 32 sec) 
Heartbeat CPU  0 instructions:   32000000 cycles:   14852217 heartbeat IPC: 2.46186 cumulative IPC: 2.15456 (Simulation time: 0 hr 0 min 32 sec) 
Heartbeat CPU  0 instructions:   33000003 cycles:   15258383 heartbeat IPC: 2.46205 cumulative IPC: 2.16275 (Simulation time: 0 hr 0 min 33 sec) 
Heartbeat CPU  0 instructions:   34000001 cycles:   15664557 heartbeat IPC: 2.46199 cumulative IPC: 2.17051 (Simulation time: 0 hr 0 min 34 sec) 
Heartbeat CPU  0 instructions:   35000003 cycles:   16070740 heartbeat IPC: 2.46195 cumulative IPC: 2.17787 (Simulation time: 0 hr 0 min 35 sec) 
Heartbeat CPU  0 instructions:   36000000 cycles:   16476933 heartbeat IPC: 2.46188 cumulative IPC: 2.18487 (Simulation time: 0 hr 0 min 35 sec) 
Heartbeat CPU  0 instructions:   37000001 cycles:   16883130 heartbeat IPC: 2.46186 cumulative IPC: 2.19154 (Simulation time: 0 hr 0 min 36 sec) 
Heartbeat CPU  0 instructions:   38000003 cycles:   17289319 heartbeat IPC: 2.46191 cumulative IPC: 2.19789 (Simulation time: 0 hr 0 min 37 sec) 
Heartbeat CPU  0 instructions:   39000001 cycles:   17695484 heartbeat IPC: 2.46205 cumulative IPC: 2.20395 (Simulation time: 0 hr 0 min 38 sec) 
Heartbeat CPU  0 instructions:   40000000 cycles:   18101662 heartbeat IPC: 2.46197 cumulative IPC: 2.20974 (Simulation time: 0 hr 0 min 39 sec) 
Heartbeat CPU  0 instructions:   41000002 cycles:   18507875 heartbeat IPC: 2.46177 cumulative IPC: 2.21527 (Simulation time: 0 hr 0 min 39 sec) 
Heartbeat CPU  0 instructions:   42000003 cycles:   18914053 heartbeat IPC: 2.46198 cumulative IPC: 2.22057 (Simulation time: 0 hr 0 min 40 sec) 
Heartbeat CPU  0 instructions:   43000003 cycles:   19320226 heartbeat IPC: 2.46201 cumulative IPC: 2.22565 (Simulation time: 0 hr 0 min 41 sec) 
Heartbeat CPU  0 instructions:   44000000 cycles:   19726396 heartbeat IPC: 2.46202 cumulative IPC: 2.23051 (Simulation time: 0 hr 0 min 41 sec) 
Heartbeat CPU  0 instructions:   45000003 cycles:   20132600 heartbeat IPC: 2.46182 cumulative IPC: 2.23518 (Simulation time: 0 hr 0 min 42 sec) 
Heartbeat CPU  0 instructions:   46000001 cycles:   20538881 heartbeat IPC: 2.46135 cumulative IPC: 2.23965 (Simulation time: 0 hr 0 min 43 sec) 
Heartbeat CPU  0 instructions:   47000000 cycles:   20975587 heartbeat IPC: 2.28987 cumulative IPC: 2.24070 (Simulation time: 0 hr 0 min 44 sec) 
Heartbeat CPU  0 instructions:   48000000 cycles:   21412765 heartbeat IPC: 2.28740 cumulative IPC: 2.24165 (Simulation time: 0 hr 0 min 45 sec) 
Heartbeat CPU  0 instructions:   49000001 cycles:   21849925 heartbeat IPC: 2.28749 cumulative IPC: 2.24257 (Simulation time: 0 hr 0 min 45 sec) 
Heartbeat CPU  0 instructions:   50000001 cycles:   22287130 heartbeat IPC: 2.28726 cumulative IPC: 2.24345 (Simulation time: 0 hr 0 min 46 sec) 
Heartbeat CPU  0 instructions:   51000002 cycles:   22724385 heartbeat IPC: 2.28700 cumulative IPC: 2.24429 (Simulation time: 0 hr 0 min 47 sec) 
Heartbeat CPU  0 instructions:   52000000 cycles:   23161596 heartbeat IPC: 2.28722 cumulative IPC: 2.24510 (Simulation time: 0 hr 0 min 48 sec) 
Heartbeat CPU  0 instructions:   53000001 cycles:   23598789 heartbeat IPC: 2.28732 cumulative IPC: 2.24588 (Simulation time: 0 hr 0 min 49 sec) 
Heartbeat CPU  0 instructions:   54000001 cycles:   24035930 heartbeat IPC: 2.28759 cumulative IPC: 2.24664 (Simulation time: 0 hr 0 min 49 sec) 
Heartbeat CPU  0 instructions:   55000002 cycles:   24473072 heartbeat IPC: 2.28759 cumulative IPC: 2.24737 (Simulation time: 0 hr 0 min 50 sec) 
Heartbeat CPU  0 instructions:   56000000 cycles:   24910288 heartbeat IPC: 2.28719 cumulative IPC: 2.24807 (Simulation time: 0 hr 0 min 51 sec) 
Heartbeat CPU  0 instructions:   57000001 cycles:   25347434 heartbeat IPC: 2.28757 cumulative IPC: 2.24875 (Simulation time: 0 hr 0 min 52 sec) 
Heartbeat CPU  0 instructions:   58000000 cycles:   25784588 heartbeat IPC: 2.28752 cumulative IPC: 2.24941 (Simulation time: 0 hr 0 min 53 sec) 
Heartbeat CPU  0 instructions:   59000000 cycles:   26221840 heartbeat IPC: 2.28701 cumulative IPC: 2.25003 (Simulation time: 0 hr 0 min 53 sec) 
Heartbeat CPU  0 instructions:   60000000 cycles:   26659027 heartbeat IPC: 2.28735 cumulative IPC: 2.25064 (Simulation time: 0 hr 0 min 54 sec) 
Heartbeat CPU  0 instructions:   61000001 cycles:   27096221 heartbeat IPC: 2.28732 cumulative IPC: 2.25124 (Simulation time: 0 hr 0 min 55 sec) 
Heartbeat CPU  0 instructions:   62000002 cycles:   27533422 heartbeat IPC: 2.28728 cumulative IPC: 2.25181 (Simulation time: 0 hr 0 min 56 sec) 
Heartbeat CPU  0 instructions:   63000001 cycles:   27970617 heartbeat IPC: 2.28731 cumulative IPC: 2.25236 (Simulation time: 0 hr 0 min 56 sec) 
Heartbeat CPU  0 instructions:   64000000 cycles:   28407757 heartbeat IPC: 2.28759 cumulative IPC: 2.25291 (Simulation time: 0 hr 0 min 57 sec) 
Heartbeat CPU  0 instructions:   65000001 cycles:   28844993 heartbeat IPC: 2.28710 cumulative IPC: 2.25342 (Simulation time: 0 hr 0 min 58 sec) 
Heartbeat CPU  0 instructions:   66000002 cycles:   29282284 heartbeat IPC: 2.28681 cumulative IPC: 2.25392 (Simulation time: 0 hr 0 min 59 sec) 
Heartbeat CPU  0 instructions:   67000001 cycles:   29719596 heartbeat IPC: 2.28669 cumulative IPC: 2.25440 (Simulation time: 0 hr 0 min 59 sec) 
Heartbeat CPU  0 instructions:   68000000 cycles:   30157000 heartbeat IPC: 2.28621 cumulative IPC: 2.25487 (Simulation time: 0 hr 1 min 0 sec) 
Heartbeat CPU  0 instructions:   69000000 cycles:   30596654 heartbeat IPC: 2.27452 cumulative IPC: 2.25515 (Simulation time: 0 hr 1 min 1 sec) 
Heartbeat CPU  0 instructions:   70000002 cycles:   31101213 heartbeat IPC: 1.98193 cumulative IPC: 2.25072 (Simulation time: 0 hr 1 min 2 sec) 
Heartbeat CPU  0 instructions:   71000001 cycles:   31611816 heartbeat IPC: 1.95847 cumulative IPC: 2.24600 (Simulation time: 0 hr 1 min 4 sec) 
Heartbeat CPU  0 instructions:   72000000 cycles:   32122402 heartbeat IPC: 1.95853 cumulative IPC: 2.24143 (Simulation time: 0 hr 1 min 5 sec) 
Heartbeat CPU  0 instructions:   73000002 cycles:   32633037 heartbeat IPC: 1.95835 cumulative IPC: 2.23700 (Simulation time: 0 hr 1 min 6 sec) 
Heartbeat CPU  0 instructions:   74000002 cycles:   33143623 heartbeat IPC: 1.95853 cumulative IPC: 2.23271 (Simulation time: 0 hr 1 min 8 sec) 
Heartbeat CPU  0 instructions:   75000001 cycles:   33654228 heartbeat IPC: 1.95846 cumulative IPC: 2.22855 (Simulation time: 0 hr 1 min 9 sec) 
Heartbeat CPU  0 instructions:   76000000 cycles:   34164814 heartbeat IPC: 1.95853 cumulative IPC: 2.22451 (Simulation time: 0 hr 1 min 10 sec) 
Heartbeat CPU  0 instructions:   77000001 cycles:   34675447 heartbeat IPC: 1.95836 cumulative IPC: 2.22059 (Simulation time: 0 hr 1 min 12 sec) 
Heartbeat CPU  0 instructions:   78000001 cycles:   35186033 heartbeat IPC: 1.95853 cumulative IPC: 2.21679 (Simulation time: 0 hr 1 min 13 sec) 
Heartbeat CPU  0 instructions:   79000000 cycles:   35696640 heartbeat IPC: 1.95845 cumulative IPC: 2.21309 (Simulation time: 0 hr 1 min 14 sec) 
Heartbeat CPU  0 instructions:   80000000 cycles:   36207226 heartbeat IPC: 1.95853 cumulative IPC: 2.20950 (Simulation time: 0 hr 1 min 16 sec) 
Heartbeat CPU  0 instructions:   81000002 cycles:   36717860 heartbeat IPC: 1.95835 cumulative IPC: 2.20601 (Simulation time: 0 hr 1 min 17 sec) 
Heartbeat CPU  0 instructions:   82000002 cycles:   37228446 heartbeat IPC: 1.95853 cumulative IPC: 2.20262 (Simulation time: 0 hr 1 min 18 sec) 
Heartbeat CPU  0 instructions:   83000001 cycles:   37739050 heartbeat IPC: 1.95846 cumulative IPC: 2.19931 (Simulation time: 0 hr 1 min 20 sec) 
Heartbeat CPU  0 instructions:   84000000 cycles:   38225351 heartbeat IPC: 2.05634 cumulative IPC: 2.19749 (Simulation time: 0 hr 1 min 21 sec) 
Heartbeat CPU  0 instructions:   85000003 cycles:   38631598 heartbeat IPC: 2.46156 cumulative IPC: 2.20027 (Simulation time: 0 hr 1 min 22 sec) 
Heartbeat CPU  0 instructions:   86000001 cycles:   39037830 heartbeat IPC: 2.46164 cumulative IPC: 2.20299 (Simulation time: 0 hr 1 min 22 sec) 
Heartbeat CPU  0 instructions:   87000003 cycles:   39444070 heartbeat IPC: 2.46160 cumulative IPC: 2.20565 (Simulation time: 0 hr 1 min 23 sec) 
Heartbeat CPU  0 instructions:   88000000 cycles:   39850339 heartbeat IPC: 2.46142 cumulative IPC: 2.20826 (Simulation time: 0 hr 1 min 24 sec) 
Heartbeat CPU  0 instructions:   89000001 cycles:   40256581 heartbeat IPC: 2.46159 cumulative IPC: 2.21082 (Simulation time: 0 hr 1 min 24 sec) 
Heartbeat CPU  0 instructions:   90000003 cycles:   40662816 heartbeat IPC: 2.46163 cumulative IPC: 2.21332 (Simulation time: 0 hr 1 min 25 sec) 
Heartbeat CPU  0 instructions:   91000001 cycles:   41069046 heartbeat IPC: 2.46165 cumulative IPC: 2.21578 (Simulation time: 0 hr 1 min 26 sec) 
Heartbeat CPU  0 instructions:   92000000 cycles:   41475268 heartbeat IPC: 2.46171 cumulative IPC: 2.21819 (Simulation time: 0 hr 1 min 27 sec) 
Heartbeat CPU  0 instructions:   93000003 cycles:   41881548 heartbeat IPC: 2.46136 cumulative IPC: 2.22055 (Simulation time: 0 hr 1 min 27 sec) 
Heartbeat CPU  0 instructions:   94000001 cycles:   42287793 heartbeat IPC: 2.46156 cumulative IPC: 2.22286 (Simulation time: 0 hr 1 min 28 sec) 
Heartbeat CPU  0 instructions:   95000003 cycles:   42694022 heartbeat IPC: 2.46167 cumulative IPC: 2.22514 (Simulation time: 0 hr 1 min 29 sec) 
Heartbeat CPU  0 instructions:   96000000 cycles:   43100259 heartbeat IPC: 2.46161 cumulative IPC: 2.22736 (Simulation time: 0 hr 1 min 30 sec) 
Heartbeat CPU  0 instructions:   97000000 cycles:   43506539 heartbeat IPC: 2.46136 cumulative IPC: 2.22955 (Simulation time: 0 hr 1 min 30 sec) 
Heartbeat CPU  0 instructions:   98000003 cycles:   43912790 heartbeat IPC: 2.46154 cumulative IPC: 2.23170 (Simulation time: 0 hr 1 min 31 sec) 
Heartbeat CPU  0 instructions:   99000003 cycles:   44319015 heartbeat IPC: 2.46169 cumulative IPC: 2.23380 (Simulation time: 0 hr 1 min 32 sec) 
Heartbeat CPU  0 instructions:  100000000 cycles:   44725236 heartbeat IPC: 2.46171 cumulative IPC: 2.23587 (Simulation time: 0 hr 1 min 33 sec) 

Warmup complete CPU  0 instructions:  100000001 cycles:   44725238 (Simulation time: 0 hr 1 min 33 sec) 

Heartbeat CPU  0 instructions:  101000003 cycles:   46428601 heartbeat IPC: 0.58707 cumulative IPC: 0.58708 (Simulation time: 0 hr 1 min 34 sec) 
Heartbeat CPU  0 instructions:  102000003 cycles:   48131702 heartbeat IPC: 0.58716 cumulative IPC: 0.58712 (Simulation time: 0 hr 1 min 36 sec) 
Heartbeat CPU  0 instructions:  103000001 cycles:   49889367 heartbeat IPC: 0.56894 cumulative IPC: 0.58093 (Simulation time: 0 hr 1 min 37 sec) 
Heartbeat CPU  0 instructions:  104000000 cycles:   51613324 heartbeat IPC: 0.58006 cumulative IPC: 0.58071 (Simulation time: 0 hr 1 min 39 sec) 
Heartbeat CPU  0 instructions:  105000000 cycles:   53365686 heartbeat IPC: 0.57066 cumulative IPC: 0.57867 (Simulation time: 0 hr 1 min 40 sec) 
Heartbeat CPU  0 instructions:  106000002 cycles:   55000889 heartbeat IPC: 0.61155 cumulative IPC: 0.58390 (Simulation time: 0 hr 1 min 42 sec) 
Heartbeat CPU  0 instructions:  107000000 cycles:   56447221 heartbeat IPC: 0.69140 cumulative IPC: 0.59717 (Simulation time: 0 hr 1 min 43 sec) 
Heartbeat CPU  0 instructions:  108000000 cycles:   58114132 heartbeat IPC: 0.59991 cumulative IPC: 0.59751 (Simulation time: 0 hr 1 min 45 sec) 
Heartbeat CPU  0 instructions:  109000000 cycles:   59828660 heartbeat IPC: 0.58325 cumulative IPC: 0.59589 (Simulation time: 0 hr 1 min 46 sec) 
Heartbeat CPU  0 instructions:  110000001 cycles:   61561156 heartbeat IPC: 0.57720 cumulative IPC: 0.59397 (Simulation time: 0 hr 1 min 48 sec) 
Heartbeat CPU  0 instructions:  111000001 cycles:   63297961 heartbeat IPC: 0.57577 cumulative IPC: 0.59227 (Simulation time: 0 hr 1 min 49 sec) 
Heartbeat CPU  0 instructions:  112000000 cycles:   65024968 heartbeat IPC: 0.57904 cumulative IPC: 0.59114 (Simulation time: 0 hr 1 min 51 sec) 
Heartbeat CPU  0 instructions:  113000002 cycles:   66810476 heartbeat IPC: 0.56007 cumulative IPC: 0.58863 (Simulation time: 0 hr 1 min 52 sec) 
Heartbeat CPU  0 instructions:  114000002 cycles:   68567418 heartbeat IPC: 0.56917 cumulative IPC: 0.58719 (Simulation time: 0 hr 1 min 54 sec) 
Heartbeat CPU  0 instructions:  115000003 cycles:   70302090 heartbeat IPC: 0.57648 cumulative IPC: 0.58647 (Simulation time: 0 hr 1 min 55 sec) 
Heartbeat CPU  0 instructions:  116000000 cycles:   72034668 heartbeat IPC: 0.57717 cumulative IPC: 0.58588 (Simulation time: 0 hr 1 min 57 sec) 
Heartbeat CPU  0 instructions:  117000000 cycles:   73785367 heartbeat IPC: 0.57120 cumulative IPC: 0.58499 (Simulation time: 0 hr 1 min 58 sec) 
Heartbeat CPU  0 instructions:  118000000 cycles:   75497818 heartbeat IPC: 0.58396 cumulative IPC: 0.58494 (Simulation time: 0 hr 2 min 0 sec) 
Heartbeat CPU  0 instructions:  119000001 cycles:   77250425 heartbeat IPC: 0.57058 cumulative IPC: 0.58416 (Simulation time: 0 hr 2 min 1 sec) 
Heartbeat CPU  0 instructions:  120000000 cycles:   79005398 heartbeat IPC: 0.56981 cumulative IPC: 0.58343 (Simulation time: 0 hr 2 min 3 sec) 
Heartbeat CPU  0 instructions:  121000000 cycles:   80795347 heartbeat IPC: 0.55868 cumulative IPC: 0.58220 (Simulation time: 0 hr 2 min 4 sec) 
Heartbeat CPU  0 instructions:  122000002 cycles:   82551584 heartbeat IPC: 0.56940 cumulative IPC: 0.58161 (Simulation time: 0 hr 2 min 6 sec) 
Heartbeat CPU  0 instructions:  123000002 cycles:   84317248 heartbeat IPC: 0.56636 cumulative IPC: 0.58093 (Simulation time: 0 hr 2 min 8 sec) 
Heartbeat CPU  0 instructions:  124000000 cycles:   86084828 heartbeat IPC: 0.56574 cumulative IPC: 0.58028 (Simulation time: 0 hr 2 min 9 sec) 
Heartbeat CPU  0 instructions:  125000003 cycles:   87843712 heartbeat IPC: 0.56854 cumulative IPC: 0.57980 (Simulation time: 0 hr 2 min 11 sec) 
Heartbeat CPU  0 instructions:  126000000 cycles:   89610433 heartbeat IPC: 0.56602 cumulative IPC: 0.57926 (Simulation time: 0 hr 2 min 12 sec) 
Heartbeat CPU  0 instructions:  127000000 cycles:   91368820 heartbeat IPC: 0.56870 cumulative IPC: 0.57886 (Simulation time: 0 hr 2 min 14 sec) 
Heartbeat CPU  0 instructions:  128000000 cycles:   93151225 heartbeat IPC: 0.56104 cumulative IPC: 0.57820 (Simulation time: 0 hr 2 min 15 sec) 
Heartbeat CPU  0 instructions:  129000001 cycles:   94894590 heartbeat IPC: 0.57360 cumulative IPC: 0.57804 (Simulation time: 0 hr 2 min 17 sec) 
Heartbeat CPU  0 instructions:  130000001 cycles:   96498922 heartbeat IPC: 0.62331 cumulative IPC: 0.57944 (Simulation time: 0 hr 2 min 18 sec) 
Heartbeat CPU  0 instructions:  131000000 cycles:   99054947 heartbeat IPC: 0.39123 cumulative IPC: 0.57059 (Simulation time: 0 hr 2 min 20 sec) 
Heartbeat CPU  0 instructions:  132000000 cycles:  102060311 heartbeat IPC: 0.33274 cumulative IPC: 0.55812 (Simulation time: 0 hr 2 min 23 sec) 
Heartbeat CPU  0 instructions:  133000000 cycles:  105046684 heartbeat IPC: 0.33485 cumulative IPC: 0.54707 (Simulation time: 0 hr 2 min 25 sec) 
Heartbeat CPU  0 instructions:  134000000 cycles:  108026267 heartbeat IPC: 0.33562 cumulative IPC: 0.53712 (Simulation time: 0 hr 2 min 27 sec) 
Heartbeat CPU  0 instructions:  135000000 cycles:  110994933 heartbeat IPC: 0.33685 cumulative IPC: 0.52814 (Simulation time: 0 hr 2 min 30 sec) 
Heartbeat CPU  0 instructions:  136000000 cycles:  113970845 heartbeat IPC: 0.33603 cumulative IPC: 0.51989 (Simulation time: 0 hr 2 min 32 sec) 
Heartbeat CPU  0 instructions:  137000000 cycles:  116928934 heartbeat IPC: 0.33806 cumulative IPC: 0.51244 (Simulation time: 0 hr 2 min 35 sec) 
Heartbeat CPU  0 instructions:  138000000 cycles:  119899125 heartbeat IPC: 0.33668 cumulative IPC: 0.50549 (Simulation time: 0 hr 2 min 37 sec) 
Heartbeat CPU  0 instructions:  139000000 cycles:  122861517 heartbeat IPC: 0.33757 cumulative IPC: 0.49913 (Simulation time: 0 hr 2 min 39 sec) 
Heartbeat CPU  0 instructions:  140000000 cycles:  125830880 heartbeat IPC: 0.33677 cumulative IPC: 0.49318 (Simulation time: 0 hr 2 min 42 sec) 
Heartbeat CPU  0 instructions:  141000000 cycles:  128801845 heartbeat IPC: 0.33659 cumulative IPC: 0.48765 (Simulation time: 0 hr 2 min 44 sec) 
Heartbeat CPU  0 instructions:  142000000 cycles:  131762775 heartbeat IPC: 0.33773 cumulative IPC: 0.48255 (Simulation time: 0 hr 2 min 47 sec) 
Heartbeat CPU  0 instructions:  143000000 cycles:  134748751 heartbeat IPC: 0.33490 cumulative IPC: 0.47765 (Simulation time: 0 hr 2 min 49 sec) 
Heartbeat CPU  0 instructions:  144000000 cycles:  137719990 heartbeat IPC: 0.33656 cumulative IPC: 0.47314 (Simulation time: 0 hr 2 min 51 sec) 
Heartbeat CPU  0 instructions:  145000002 cycles:  140590514 heartbeat IPC: 0.34837 cumulative IPC: 0.46941 (Simulation time: 0 hr 2 min 54 sec) 
Heartbeat CPU  0 instructions:  146000000 cycles:  142484620 heartbeat IPC: 0.52795 cumulative IPC: 0.47054 (Simulation time: 0 hr 2 min 55 sec) 
Heartbeat CPU  0 instructions:  147000000 cycles:  144252830 heartbeat IPC: 0.56554 cumulative IPC: 0.47223 (Simulation time: 0 hr 2 min 57 sec) 
Heartbeat CPU  0 instructions:  148000000 cycles:  146005796 heartbeat IPC: 0.57046 cumulative IPC: 0.47393 (Simulation time: 0 hr 2 min 58 sec) 
Heartbeat CPU  0 instructions:  149000000 cycles:  147779552 heartbeat IPC: 0.56378 cumulative IPC: 0.47548 (Simulation time: 0 hr 3 min 0 sec) 
Heartbeat CPU  0 instructions:  150000001 cycles:  149540659 heartbeat IPC: 0.56783 cumulative IPC: 0.47703 (Simulation time: 0 hr 3 min 2 sec) 
Heartbeat CPU  0 instructions:  151000000 cycles:  151284046 heartbeat IPC: 0.57360 cumulative IPC: 0.47861 (Simulation time: 0 hr 3 min 3 sec) 
Heartbeat CPU  0 instructions:  152000000 cycles:  153018161 heartbeat IPC: 0.57666 cumulative IPC: 0.48018 (Simulation time: 0 hr 3 min 5 sec) 
Heartbeat CPU  0 instructions:  153000001 cycles:  154770727 heartbeat IPC: 0.57059 cumulative IPC: 0.48162 (Simulation time: 0 hr 3 min 6 sec) 
Heartbeat CPU  0 instructions:  154000003 cycles:  156518533 heartbeat IPC: 0.57215 cumulative IPC: 0.48303 (Simulation time: 0 hr 3 min 8 sec) 
Heartbeat CPU  0 instructions:  155000001 cycles:  158267159 heartbeat IPC: 0.57188 cumulative IPC: 0.48440 (Simulation time: 0 hr 3 min 9 sec) 
Heartbeat CPU  0 instructions:  156000000 cycles:  160028595 heartbeat IPC: 0.56772 cumulative IPC: 0.48568 (Simulation time: 0 hr 3 min 11 sec) 
Heartbeat CPU  0 instructions:  157000002 cycles:  161758227 heartbeat IPC: 0.57816 cumulative IPC: 0.48704 (Simulation time: 0 hr 3 min 12 sec) 
Heartbeat CPU  0 instructions:  158000000 cycles:  163432386 heartbeat IPC: 0.59731 cumulative IPC: 0.48860 (Simulation time: 0 hr 3 min 14 sec) 
Heartbeat CPU  0 instructions:  159000002 cycles:  165189535 heartbeat IPC: 0.56910 cumulative IPC: 0.48977 (Simulation time: 0 hr 3 min 16 sec) 
Heartbeat CPU  0 instructions:  160000000 cycles:  166926240 heartbeat IPC: 0.57580 cumulative IPC: 0.49099 (Simulation time: 0 hr 3 min 17 sec) 
Heartbeat CPU  0 instructions:  161000000 cycles:  168591925 heartbeat IPC: 0.60035 cumulative IPC: 0.49246 (Simulation time: 0 hr 3 min 19 sec) 
Heartbeat CPU  0 instructions:  162000002 cycles:  170298369 heartbeat IPC: 0.58602 cumulative IPC: 0.49374 (Simulation time: 0 hr 3 min 20 sec) 
Heartbeat CPU  0 instructions:  163000000 cycles:  171973331 heartbeat IPC: 0.59703 cumulative IPC: 0.49510 (Simulation time: 0 hr 3 min 22 sec) 
Heartbeat CPU  0 instructions:  164000000 cycles:  173725362 heartbeat IPC: 0.57077 cumulative IPC: 0.49612 (Simulation time: 0 hr 3 min 23 sec) 
Heartbeat CPU  0 instructions:  165000001 cycles:  175441584 heartbeat IPC: 0.58268 cumulative IPC: 0.49726 (Simulation time: 0 hr 3 min 25 sec) 
Heartbeat CPU  0 instructions:  166000003 cycles:  177195717 heartbeat IPC: 0.57008 cumulative IPC: 0.49822 (Simulation time: 0 hr 3 min 26 sec) 
Heartbeat CPU  0 instructions:  167000001 cycles:  178812346 heartbeat IPC: 0.61857 cumulative IPC: 0.49968 (Simulation time: 0 hr 3 min 28 sec) 
Heartbeat CPU  0 instructions:  168000000 cycles:  180284197 heartbeat IPC: 0.67942 cumulative IPC: 0.50163 (Simulation time: 0 hr 3 min 29 sec) 
Heartbeat CPU  0 instructions:  169000000 cycles:  182031961 heartbeat IPC: 0.57216 cumulative IPC: 0.50252 (Simulation time: 0 hr 3 min 31 sec) 
Heartbeat CPU  0 instructions:  170000003 cycles:  183823269 heartbeat IPC: 0.55825 cumulative IPC: 0.50324 (Simulation time: 0 hr 3 min 33 sec) 
Heartbeat CPU  0 instructions:  171000001 cycles:  185638562 heartbeat IPC: 0.55087 cumulative IPC: 0.50386 (Simulation time: 0 hr 3 min 34 sec) 
Heartbeat CPU  0 instructions:  172000000 cycles:  187453346 heartbeat IPC: 0.55103 cumulative IPC: 0.50446 (Simulation time: 0 hr 3 min 36 sec) 
Heartbeat CPU  0 instructions:  173000001 cycles:  189288094 heartbeat IPC: 0.54503 cumulative IPC: 0.50497 (Simulation time: 0 hr 3 min 38 sec) 
Heartbeat CPU  0 instructions:  174000000 cycles:  191113066 heartbeat IPC: 0.54795 cumulative IPC: 0.50551 (Simulation time: 0 hr 3 min 39 sec) 
Heartbeat CPU  0 instructions:  175000002 cycles:  192947246 heartbeat IPC: 0.54520 cumulative IPC: 0.50600 (Simulation time: 0 hr 3 min 41 sec) 
Heartbeat CPU  0 instructions:  176000000 cycles:  194771697 heartbeat IPC: 0.54811 cumulative IPC: 0.50651 (Simulation time: 0 hr 3 min 43 sec) 
Heartbeat CPU  0 instructions:  177000002 cycles:  196590043 heartbeat IPC: 0.54995 cumulative IPC: 0.50703 (Simulation time: 0 hr 3 min 44 sec) 
Heartbeat CPU  0 instructions:  178000000 cycles:  198440910 heartbeat IPC: 0.54029 cumulative IPC: 0.50743 (Simulation time: 0 hr 3 min 46 sec) 
Heartbeat CPU  0 instructions:  179000003 cycles:  200271307 heartbeat IPC: 0.54633 cumulative IPC: 0.50789 (Simulation time: 0 hr 3 min 47 sec) 
Heartbeat CPU  0 instructions:  180000000 cycles:  202103749 heartbeat IPC: 0.54572 cumulative IPC: 0.50833 (Simulation time: 0 hr 3 min 49 sec) 
Heartbeat CPU  0 instructions:  181000000 cycles:  203943686 heartbeat IPC: 0.54350 cumulative IPC: 0.50874 (Simulation time: 0 hr 3 min 51 sec) 
Heartbeat CPU  0 instructions:  182000001 cycles:  205793895 heartbeat IPC: 0.54048 cumulative IPC: 0.50910 (Simulation time: 0 hr 3 min 52 sec) 
Heartbeat CPU  0 instructions:  183000000 cycles:  207628020 heartbeat IPC: 0.54522 cumulative IPC: 0.50951 (Simulation time: 0 hr 3 min 54 sec) 
Heartbeat CPU  0 instructions:  184000000 cycles:  209482568 heartbeat IPC: 0.53921 cumulative IPC: 0.50984 (Simulation time: 0 hr 3 min 55 sec) 
Heartbeat CPU  0 instructions:  185000001 cycles:  211313637 heartbeat IPC: 0.54613 cumulative IPC: 0.51024 (Simulation time: 0 hr 3 min 57 sec) 
Heartbeat CPU  0 instructions:  186000002 cycles:  213164505 heartbeat IPC: 0.54029 cumulative IPC: 0.51057 (Simulation time: 0 hr 3 min 59 sec) 
Heartbeat CPU  0 instructions:  187000000 cycles:  215010070 heartbeat IPC: 0.54184 cumulative IPC: 0.51091 (Simulation time: 0 hr 4 min 0 sec) 
Heartbeat CPU  0 instructions:  188000000 cycles:  216860476 heartbeat IPC: 0.54042 cumulative IPC: 0.51123 (Simulation time: 0 hr 4 min 2 sec) 
Heartbeat CPU  0 instructions:  189000001 cycles:  218714469 heartbeat IPC: 0.53938 cumulative IPC: 0.51153 (Simulation time: 0 hr 4 min 4 sec) 
Heartbeat CPU  0 instructions:  190000000 cycles:  220517459 heartbeat IPC: 0.55463 cumulative IPC: 0.51197 (Simulation time: 0 hr 4 min 5 sec) 
Heartbeat CPU  0 instructions:  191000000 cycles:  222155094 heartbeat IPC: 0.61064 cumulative IPC: 0.51288 (Simulation time: 0 hr 4 min 7 sec) 
Heartbeat CPU  0 instructions:  192000000 cycles:  224731178 heartbeat IPC: 0.38819 cumulative IPC: 0.51109 (Simulation time: 0 hr 4 min 9 sec) 
Heartbeat CPU  0 instructions:  193000000 cycles:  227750649 heartbeat IPC: 0.33118 cumulative IPC: 0.50813 (Simulation time: 0 hr 4 min 11 sec) 
Heartbeat CPU  0 instructions:  194000000 cycles:  230702536 heartbeat IPC: 0.33877 cumulative IPC: 0.50544 (Simulation time: 0 hr 4 min 14 sec) 
Heartbeat CPU  0 instructions:  195000000 cycles:  233648861 heartbeat IPC: 0.33941 cumulative IPC: 0.50285 (Simulation time: 0 hr 4 min 16 sec) 
Heartbeat CPU  0 instructions:  196000000 cycles:  236586025 heartbeat IPC: 0.34046 cumulative IPC: 0.50036 (Simulation time: 0 hr 4 min 19 sec) 
Heartbeat CPU  0 instructions:  197000000 cycles:  239528153 heartbeat IPC: 0.33989 cumulative IPC: 0.49794 (Simulation time: 0 hr 4 min 21 sec) 
Heartbeat CPU  0 instructions:  198000000 cycles:  242455337 heartbeat IPC: 0.34163 cumulative IPC: 0.49563 (Simulation time: 0 hr 4 min 23 sec) 
Heartbeat CPU  0 instructions:  199000000 cycles:  245394452 heartbeat IPC: 0.34024 cumulative IPC: 0.49335 (Simulation time: 0 hr 4 min 26 sec) 
Heartbeat CPU  0 instructions:  200000000 cycles:  248317379 heartbeat IPC: 0.34212 cumulative IPC: 0.49118 (Simulation time: 0 hr 4 min 28 sec) 
Finished CPU 0 instructions: 100000000 cycles: 203592154 cumulative IPC: 0.49118 (Simulation time: 0 hr 4 min 28 sec) 

ChampSim completed all CPUs

[ROI Statistics]
Core_0_instructions 100000000
Core_0_cycles 203592154
Core_0_IPC 0.49118

Core_0_branch_prediction_accuracy 99.58952
Core_0_branch_MPKI 0.70683
Core_0_average_ROB_occupancy_at_mispredict 218.77009

Core_0_L1D_total_access 12828207
Core_0_L1D_total_hit 10251984
Core_0_L1D_total_miss 2576223
Core_0_L1D_loads 9335230
Core_0_L1D_load_hit 6759027
Core_0_L1D_load_miss 2576203
Core_0_L1D_RFOs 3492977
Core_0_L1D_RFO_hit 3492957
Core_0_L1D_RFO_miss 20
Core_0_L1D_prefetches 0
Core_0_L1D_prefetch_hit 0
Core_0_L1D_prefetch_miss 0
Core_0_L1D_writebacks 0
Core_0_L1D_writeback_hit 0
Core_0_L1D_writeback_miss 0
Core_0_L1D_prefetch_requested 0
Core_0_L1D_prefetch_issued 0
Core_0_L1D_prefetch_useful 0
Core_0_L1D_prefetch_useless 0
Core_0_L1D_prefetch_late 0
Core_0_L1D_average_miss_latency 185.54729

Core_0_L1I_total_access 33010217
Core_0_L1I_total_hit 33010216
Core_0_L1I_total_miss 1
Core_0_L1I_loads 33010217
Core_0_L1I_load_hit 33010216
Core_0_L1I_load_miss 1
Core_0_L1I_RFOs 0
Core_0_L1I_RFO_hit 0
Core_0_L1I_RFO_miss 0
Core_0_L1I_prefetches 0
Core_0_L1I_prefetch_hit 0
Core_0_L1I_prefetch_miss 0
Core_0_L1I_writebacks 0
Core_0_L1I_writeback_hit 0
Core_0_L1I_writeback_miss 0
Core_0_L1I_prefetch_requested 0
Core_0_L1I_prefetch_issued 0
Core_0_L1I_prefetch_useful 0
Core_0_L1I_prefetch_useless 0
Core_0_L1I_prefetch_late 0
Core_0_L1I_average_miss_latency 231.00000

Core_0_L2C_total_access 3526369
Core_0_L2C_total_hit 950145
Core_0_L2C_total_miss 2576224
Core_0_L2C_loads 2576204
Core_0_L2C_load_hit 0
Core_0_L2C_load_miss 2576204
Core_0_L2C_RFOs 20
Core_0_L2C_RFO_hit 0
Core_0_L2C_RFO_miss 20
Core_0_L2C_prefetches 0
Core_0_L2C_prefetch_hit 0
Core_0_L2C_prefetch_miss 0
Core_0_L2C_writebacks 950145
Core_0_L2C_writeback_hit 950145
Core_0_L2C_writeback_miss 0
Core_0_L2C_prefetch_requested 0
Core_0_L2C_prefetch_issued 0
Core_0_L2C_prefetch_useful 0
Core_0_L2C_prefetch_useless 0
Core_0_L2C_prefetch_late 0
Core_0_L2C_average_miss_latency 171.43836

Core_0_LLC_total_access 3518927
Core_0_LLC_total_hit 117799
Core_0_LLC_total_miss 3401128
Core_0_LLC_loads 2576204
Core_0_LLC_load_hit 73196
Core_0_LLC_load_miss 2503008
Core_0_LLC_RFOs 20
Core_0_LLC_RFO_hit 7
Core_0_LLC_RFO_miss 13
Core_0_LLC_prefetches 0
Core_0_LLC_prefetch_hit 0
Core_0_LLC_prefetch_miss 0
Core_0_LLC_writebacks 942703
Core_0_LLC_writeback_hit 44596
Core_0_LLC_writeback_miss 898107
Core_0_LLC_prefetch_requested 0
Core_0_LLC_prefetch_issued 0
Core_0_LLC_prefetch_useful 0
Core_0_LLC_prefetch_useless 0
Core_0_LLC_prefetch_late 0
Core_0_LLC_average_miss_latency 107.06015

Core_0_major_page_fault 0
Core_0_minor_page_fault 8199

Channel_0_RQ_row_buffer_hit 1457401
Channel_0_RQ_row_buffer_miss 1045620
Channel_0_WQ_row_buffer_hit 561455
Channel_0_WQ_row_buffer_miss 370103
Channel_0_WQ_full 0
Channel_0_dbus_congested 1538775

avg_congested_cycle 9
