*************************************************
   ChampSim Multicore Out-of-Order Simulator
   Last compiled: Dec 21 2023 18:15:01
*************************************************

trace_0 ./test_trace/462.libquantum-714B.champsimtrace.xz
CPU 0 L1D next line prefetcher
CPU 0 L2C next line prefetcher
Initialize DRRIP state
Assign rand_sets[0]: 454  LLC: 2048
rand_sets[0]: 454
Assign rand_sets[1]: 1662  LLC: 2048
rand_sets[1]: 1662
Assign rand_sets[2]: 1921  LLC: 2048
rand_sets[2]: 1921
Assign rand_sets[3]: 1131  LLC: 2048
rand_sets[3]: 1131
Assign rand_sets[4]: 331  LLC: 2048
rand_sets[4]: 331
Assign rand_sets[5]: 1531  LLC: 2048
rand_sets[5]: 1531
Assign rand_sets[6]: 482  LLC: 2048
rand_sets[6]: 482
Assign rand_sets[7]: 1275  LLC: 2048
rand_sets[7]: 1275
Assign rand_sets[8]: 1876  LLC: 2048
rand_sets[8]: 1876
Assign rand_sets[9]: 2038  LLC: 2048
rand_sets[9]: 2038
Assign rand_sets[10]: 701  LLC: 2048
rand_sets[10]: 701
Assign rand_sets[11]: 479  LLC: 2048
rand_sets[11]: 479
Assign rand_sets[12]: 892  LLC: 2048
rand_sets[12]: 892
Assign rand_sets[13]: 1820  LLC: 2048
rand_sets[13]: 1820
Assign rand_sets[14]: 1505  LLC: 2048
rand_sets[14]: 1505
Assign rand_sets[15]: 1159  LLC: 2048
rand_sets[15]: 1159
Assign rand_sets[16]: 513  LLC: 2048
rand_sets[16]: 513
Assign rand_sets[17]: 703  LLC: 2048
rand_sets[17]: 703
Assign rand_sets[18]: 561  LLC: 2048
rand_sets[18]: 561
Assign rand_sets[19]: 990  LLC: 2048
rand_sets[19]: 990
Assign rand_sets[20]: 342  LLC: 2048
rand_sets[20]: 342
Assign rand_sets[21]: 882  LLC: 2048
rand_sets[21]: 882
Assign rand_sets[22]: 15  LLC: 2048
rand_sets[22]: 15
Assign rand_sets[23]: 71  LLC: 2048
rand_sets[23]: 71
Assign rand_sets[24]: 1127  LLC: 2048
rand_sets[24]: 1127
Assign rand_sets[25]: 1382  LLC: 2048
rand_sets[25]: 1382
Assign rand_sets[26]: 647  LLC: 2048
rand_sets[26]: 647
Assign rand_sets[27]: 857  LLC: 2048
rand_sets[27]: 857
Assign rand_sets[28]: 1450  LLC: 2048
rand_sets[28]: 1450
Assign rand_sets[29]: 1160  LLC: 2048
rand_sets[29]: 1160
Assign rand_sets[30]: 1852  LLC: 2048
rand_sets[30]: 1852
Assign rand_sets[31]: 1881  LLC: 2048
rand_sets[31]: 1881
Assign rand_sets[32]: 1770  LLC: 2048
rand_sets[32]: 1770
Assign rand_sets[33]: 1622  LLC: 2048
rand_sets[33]: 1622
Assign rand_sets[34]: 275  LLC: 2048
rand_sets[34]: 275
Assign rand_sets[35]: 635  LLC: 2048
rand_sets[35]: 635
Assign rand_sets[36]: 466  LLC: 2048
rand_sets[36]: 466
Assign rand_sets[37]: 1413  LLC: 2048
rand_sets[37]: 1413
Assign rand_sets[38]: 417  LLC: 2048
rand_sets[38]: 417
Assign rand_sets[39]: 472  LLC: 2048
rand_sets[39]: 472
Assign rand_sets[40]: 1340  LLC: 2048
rand_sets[40]: 1340
Assign rand_sets[41]: 852  LLC: 2048
rand_sets[41]: 852
Assign rand_sets[42]: 1365  LLC: 2048
rand_sets[42]: 1365
Assign rand_sets[43]: 47  LLC: 2048
rand_sets[43]: 47
Assign rand_sets[44]: 823  LLC: 2048
rand_sets[44]: 823
Assign rand_sets[45]: 686  LLC: 2048
rand_sets[45]: 686
Assign rand_sets[46]: 1637  LLC: 2048
rand_sets[46]: 1637
Assign rand_sets[47]: 1115  LLC: 2048
rand_sets[47]: 1115
Assign rand_sets[48]: 986  LLC: 2048
rand_sets[48]: 986
Assign rand_sets[49]: 258  LLC: 2048
rand_sets[49]: 258
Assign rand_sets[50]: 633  LLC: 2048
rand_sets[50]: 633
Assign rand_sets[51]: 920  LLC: 2048
rand_sets[51]: 920
Assign rand_sets[52]: 204  LLC: 2048
rand_sets[52]: 204
Assign rand_sets[53]: 227  LLC: 2048
rand_sets[53]: 227
Assign rand_sets[54]: 1818  LLC: 2048
rand_sets[54]: 1818
Assign rand_sets[55]: 886  LLC: 2048
rand_sets[55]: 886
Assign rand_sets[56]: 1422  LLC: 2048
rand_sets[56]: 1422
Assign rand_sets[57]: 607  LLC: 2048
rand_sets[57]: 607
Assign rand_sets[58]: 217  LLC: 2048
rand_sets[58]: 217
Assign rand_sets[59]: 1945  LLC: 2048
rand_sets[59]: 1945
Assign rand_sets[60]: 143  LLC: 2048
rand_sets[60]: 143
Assign rand_sets[61]: 1311  LLC: 2048
rand_sets[61]: 1311
Assign rand_sets[62]: 319  LLC: 2048
rand_sets[62]: 319
Assign rand_sets[63]: 1846  LLC: 2048
rand_sets[63]: 1846
LLC Next Line Prefetcher
warmup_instructions 100000000
simulation_instructions 100000000
champsim_seed 222

num_cpus 1
cpu_freq 4000
dram_io_freq 2400
page_size 4096
block_size 64
max_read_per_cycle 8
max_fill_per_cycle 1
dram_channels 1
dram_ranks 1
dram_banks 8
dram_rows 65536
dram_columns 128
dram_row_size 8
dram_size 4096
dram_pages 1048576

fetch_width 6
decode_width 6
exec_width 4
lq_width 2
sq_width 2
retire_width 4
scheduler_size 128
branch_mispredict_penalty 20
rob_size 256
lq_size 72
sq_size 56
num_instr_destinations_sparc 4
num_instr_destinations 2
num_instr_sources 4

itlb_set 16
itlb_way 8
itlb_rq_size 16
itlb_wq_size 16
itlb_pq_size 0
itlb_mshr_size 8
itlb_latency 1

dtlb_set 16
dtlb_way 4
dtlb_rq_size 16
dtlb_wq_size 16
dtlb_pq_size 0
dtlb_mshr_size 8
dtlb_latency 1

stlb_set 128
stlb_way 12
stlb_rq_size 32
stlb_wq_size 32
stlb_pq_size 0
stlb_mshr_size 16
stlb_latency 8

l1i_size 32
l1i_set 64
l1i_way 8
l1i_rq_size 64
l1i_wq_size 64
l1i_pq_size 8
l1i_mshr_size 8
l1i_latency 1

l1d_size 32
l1d_set 64
l1d_way 8
l1d_rq_size 64
l1d_wq_size 64
l1d_pq_size 8
l1d_mshr_size 16
l1d_latency 4

l2c_size 512
l2c_set 1024
l2c_way 8
l2c_rq_size 32
l2c_wq_size 32
l2c_pq_size 16
l2c_mshr_size 32
l2c_latency 10

llc_size 2048
llc_set 2048
llc_way 16
llc_rq_size 32
llc_wq_size 32
llc_pq_size 32
llc_mshr_size 64
llc_latency 20

dram_channel_width 8
dram_wq_size 64
dram_rq_size 64
tRP 15
tRCD 15
tCAS 12.5
dram_dbus_turn_around_time 30
dram_write_high_wm 56
dram_write_low_wm 48
min_dram_writes_per_switch 16
dram_mtps 2400
dram_dbus_return_time 13


Heartbeat CPU  0 instructions:    1000000 cycles:     581510 heartbeat IPC: 1.71966 cumulative IPC: 1.71966 (Simulation time: 0 hr 0 min 1 sec) 
Heartbeat CPU  0 instructions:    2000003 cycles:    1163543 heartbeat IPC: 1.71812 cumulative IPC: 1.71889 (Simulation time: 0 hr 0 min 1 sec) 
Heartbeat CPU  0 instructions:    3000002 cycles:    1745575 heartbeat IPC: 1.71812 cumulative IPC: 1.71863 (Simulation time: 0 hr 0 min 2 sec) 
Heartbeat CPU  0 instructions:    4000000 cycles:    2327604 heartbeat IPC: 1.71812 cumulative IPC: 1.71851 (Simulation time: 0 hr 0 min 3 sec) 
Heartbeat CPU  0 instructions:    5000000 cycles:    2909636 heartbeat IPC: 1.71812 cumulative IPC: 1.71843 (Simulation time: 0 hr 0 min 4 sec) 
Heartbeat CPU  0 instructions:    6000000 cycles:    3491670 heartbeat IPC: 1.71811 cumulative IPC: 1.71838 (Simulation time: 0 hr 0 min 5 sec) 
Heartbeat CPU  0 instructions:    7000000 cycles:    4073701 heartbeat IPC: 1.71812 cumulative IPC: 1.71834 (Simulation time: 0 hr 0 min 5 sec) 
Heartbeat CPU  0 instructions:    8000000 cycles:    4655734 heartbeat IPC: 1.71812 cumulative IPC: 1.71831 (Simulation time: 0 hr 0 min 6 sec) 
Heartbeat CPU  0 instructions:    9000002 cycles:    5192884 heartbeat IPC: 1.86168 cumulative IPC: 1.73314 (Simulation time: 0 hr 0 min 7 sec) 
Heartbeat CPU  0 instructions:   10000002 cycles:    5715746 heartbeat IPC: 1.91255 cumulative IPC: 1.74955 (Simulation time: 0 hr 0 min 9 sec) 
Heartbeat CPU  0 instructions:   11000001 cycles:    6238631 heartbeat IPC: 1.91246 cumulative IPC: 1.76321 (Simulation time: 0 hr 0 min 10 sec) 
Heartbeat CPU  0 instructions:   12000000 cycles:    6761493 heartbeat IPC: 1.91255 cumulative IPC: 1.77476 (Simulation time: 0 hr 0 min 11 sec) 
Heartbeat CPU  0 instructions:   13000001 cycles:    7284402 heartbeat IPC: 1.91238 cumulative IPC: 1.78464 (Simulation time: 0 hr 0 min 13 sec) 
Heartbeat CPU  0 instructions:   14000001 cycles:    7807264 heartbeat IPC: 1.91255 cumulative IPC: 1.79320 (Simulation time: 0 hr 0 min 14 sec) 
Heartbeat CPU  0 instructions:   15000000 cycles:    8330149 heartbeat IPC: 1.91246 cumulative IPC: 1.80069 (Simulation time: 0 hr 0 min 15 sec) 
Heartbeat CPU  0 instructions:   16000000 cycles:    8853011 heartbeat IPC: 1.91255 cumulative IPC: 1.80729 (Simulation time: 0 hr 0 min 17 sec) 
Heartbeat CPU  0 instructions:   17000000 cycles:    9375920 heartbeat IPC: 1.91238 cumulative IPC: 1.81316 (Simulation time: 0 hr 0 min 18 sec) 
Heartbeat CPU  0 instructions:   18000000 cycles:    9898782 heartbeat IPC: 1.91255 cumulative IPC: 1.81841 (Simulation time: 0 hr 0 min 19 sec) 
Heartbeat CPU  0 instructions:   19000003 cycles:   10421667 heartbeat IPC: 1.91247 cumulative IPC: 1.82313 (Simulation time: 0 hr 0 min 21 sec) 
Heartbeat CPU  0 instructions:   20000000 cycles:   10944529 heartbeat IPC: 1.91254 cumulative IPC: 1.82740 (Simulation time: 0 hr 0 min 22 sec) 
Heartbeat CPU  0 instructions:   21000003 cycles:   11467438 heartbeat IPC: 1.91238 cumulative IPC: 1.83127 (Simulation time: 0 hr 0 min 23 sec) 
Heartbeat CPU  0 instructions:   22000003 cycles:   11990300 heartbeat IPC: 1.91255 cumulative IPC: 1.83482 (Simulation time: 0 hr 0 min 25 sec) 
Heartbeat CPU  0 instructions:   23000000 cycles:   12504816 heartbeat IPC: 1.94357 cumulative IPC: 1.83929 (Simulation time: 0 hr 0 min 26 sec) 
Heartbeat CPU  0 instructions:   24000000 cycles:   12925097 heartbeat IPC: 2.37936 cumulative IPC: 1.85685 (Simulation time: 0 hr 0 min 27 sec) 
Heartbeat CPU  0 instructions:   25000000 cycles:   13345373 heartbeat IPC: 2.37939 cumulative IPC: 1.87331 (Simulation time: 0 hr 0 min 27 sec) 
Heartbeat CPU  0 instructions:   26000000 cycles:   13765659 heartbeat IPC: 2.37933 cumulative IPC: 1.88876 (Simulation time: 0 hr 0 min 28 sec) 
Heartbeat CPU  0 instructions:   27000000 cycles:   14185970 heartbeat IPC: 2.37919 cumulative IPC: 1.90329 (Simulation time: 0 hr 0 min 29 sec) 
Heartbeat CPU  0 instructions:   28000000 cycles:   14606278 heartbeat IPC: 2.37921 cumulative IPC: 1.91698 (Simulation time: 0 hr 0 min 29 sec) 
Heartbeat CPU  0 instructions:   29000002 cycles:   15026556 heartbeat IPC: 2.37938 cumulative IPC: 1.92992 (Simulation time: 0 hr 0 min 30 sec) 
Heartbeat CPU  0 instructions:   30000003 cycles:   15446822 heartbeat IPC: 2.37945 cumulative IPC: 1.94215 (Simulation time: 0 hr 0 min 31 sec) 
Heartbeat CPU  0 instructions:   31000001 cycles:   15867116 heartbeat IPC: 2.37928 cumulative IPC: 1.95373 (Simulation time: 0 hr 0 min 32 sec) 
Heartbeat CPU  0 instructions:   32000000 cycles:   16287435 heartbeat IPC: 2.37914 cumulative IPC: 1.96470 (Simulation time: 0 hr 0 min 32 sec) 
Heartbeat CPU  0 instructions:   33000003 cycles:   16707709 heartbeat IPC: 2.37941 cumulative IPC: 1.97514 (Simulation time: 0 hr 0 min 33 sec) 
Heartbeat CPU  0 instructions:   34000000 cycles:   17127971 heartbeat IPC: 2.37946 cumulative IPC: 1.98506 (Simulation time: 0 hr 0 min 34 sec) 
Heartbeat CPU  0 instructions:   35000002 cycles:   17548260 heartbeat IPC: 2.37932 cumulative IPC: 1.99450 (Simulation time: 0 hr 0 min 34 sec) 
Heartbeat CPU  0 instructions:   36000000 cycles:   17968573 heartbeat IPC: 2.37917 cumulative IPC: 2.00350 (Simulation time: 0 hr 0 min 35 sec) 
Heartbeat CPU  0 instructions:   37000000 cycles:   18388889 heartbeat IPC: 2.37916 cumulative IPC: 2.01208 (Simulation time: 0 hr 0 min 36 sec) 
Heartbeat CPU  0 instructions:   38000002 cycles:   18809158 heartbeat IPC: 2.37943 cumulative IPC: 2.02029 (Simulation time: 0 hr 0 min 37 sec) 
Heartbeat CPU  0 instructions:   39000000 cycles:   19229441 heartbeat IPC: 2.37934 cumulative IPC: 2.02814 (Simulation time: 0 hr 0 min 37 sec) 
Heartbeat CPU  0 instructions:   40000000 cycles:   19649735 heartbeat IPC: 2.37929 cumulative IPC: 2.03565 (Simulation time: 0 hr 0 min 38 sec) 
Heartbeat CPU  0 instructions:   41000002 cycles:   20070071 heartbeat IPC: 2.37905 cumulative IPC: 2.04284 (Simulation time: 0 hr 0 min 39 sec) 
Heartbeat CPU  0 instructions:   42000003 cycles:   20490341 heartbeat IPC: 2.37943 cumulative IPC: 2.04975 (Simulation time: 0 hr 0 min 40 sec) 
Heartbeat CPU  0 instructions:   43000001 cycles:   20910611 heartbeat IPC: 2.37942 cumulative IPC: 2.05637 (Simulation time: 0 hr 0 min 40 sec) 
Heartbeat CPU  0 instructions:   44000000 cycles:   21330881 heartbeat IPC: 2.37942 cumulative IPC: 2.06274 (Simulation time: 0 hr 0 min 41 sec) 
Heartbeat CPU  0 instructions:   45000001 cycles:   21751184 heartbeat IPC: 2.37924 cumulative IPC: 2.06885 (Simulation time: 0 hr 0 min 42 sec) 
Heartbeat CPU  0 instructions:   46000001 cycles:   22171491 heartbeat IPC: 2.37921 cumulative IPC: 2.07474 (Simulation time: 0 hr 0 min 42 sec) 
Heartbeat CPU  0 instructions:   47000000 cycles:   22750998 heartbeat IPC: 1.72560 cumulative IPC: 2.06584 (Simulation time: 0 hr 0 min 43 sec) 
Heartbeat CPU  0 instructions:   48000000 cycles:   23333737 heartbeat IPC: 1.71603 cumulative IPC: 2.05711 (Simulation time: 0 hr 0 min 44 sec) 
Heartbeat CPU  0 instructions:   49000000 cycles:   23916481 heartbeat IPC: 1.71602 cumulative IPC: 2.04880 (Simulation time: 0 hr 0 min 45 sec) 
Heartbeat CPU  0 instructions:   50000002 cycles:   24499223 heartbeat IPC: 1.71603 cumulative IPC: 2.04088 (Simulation time: 0 hr 0 min 46 sec) 
Heartbeat CPU  0 instructions:   51000002 cycles:   25081964 heartbeat IPC: 1.71603 cumulative IPC: 2.03333 (Simulation time: 0 hr 0 min 46 sec) 
Heartbeat CPU  0 instructions:   52000000 cycles:   25664703 heartbeat IPC: 1.71603 cumulative IPC: 2.02613 (Simulation time: 0 hr 0 min 47 sec) 
Heartbeat CPU  0 instructions:   53000000 cycles:   26247444 heartbeat IPC: 1.71603 cumulative IPC: 2.01924 (Simulation time: 0 hr 0 min 48 sec) 
Heartbeat CPU  0 instructions:   54000003 cycles:   26830187 heartbeat IPC: 1.71603 cumulative IPC: 2.01266 (Simulation time: 0 hr 0 min 49 sec) 
Heartbeat CPU  0 instructions:   55000002 cycles:   27412929 heartbeat IPC: 1.71602 cumulative IPC: 2.00635 (Simulation time: 0 hr 0 min 50 sec) 
Heartbeat CPU  0 instructions:   56000000 cycles:   27995668 heartbeat IPC: 1.71603 cumulative IPC: 2.00031 (Simulation time: 0 hr 0 min 50 sec) 
Heartbeat CPU  0 instructions:   57000000 cycles:   28578410 heartbeat IPC: 1.71603 cumulative IPC: 1.99451 (Simulation time: 0 hr 0 min 51 sec) 
Heartbeat CPU  0 instructions:   58000000 cycles:   29161154 heartbeat IPC: 1.71602 cumulative IPC: 1.98895 (Simulation time: 0 hr 0 min 52 sec) 
Heartbeat CPU  0 instructions:   59000000 cycles:   29743895 heartbeat IPC: 1.71603 cumulative IPC: 1.98360 (Simulation time: 0 hr 0 min 53 sec) 
Heartbeat CPU  0 instructions:   60000000 cycles:   30326638 heartbeat IPC: 1.71602 cumulative IPC: 1.97846 (Simulation time: 0 hr 0 min 54 sec) 
Heartbeat CPU  0 instructions:   61000002 cycles:   30909378 heartbeat IPC: 1.71603 cumulative IPC: 1.97351 (Simulation time: 0 hr 0 min 54 sec) 
Heartbeat CPU  0 instructions:   62000002 cycles:   31492119 heartbeat IPC: 1.71603 cumulative IPC: 1.96875 (Simulation time: 0 hr 0 min 55 sec) 
Heartbeat CPU  0 instructions:   63000001 cycles:   32074861 heartbeat IPC: 1.71602 cumulative IPC: 1.96416 (Simulation time: 0 hr 0 min 56 sec) 
Heartbeat CPU  0 instructions:   64000000 cycles:   32657600 heartbeat IPC: 1.71603 cumulative IPC: 1.95973 (Simulation time: 0 hr 0 min 57 sec) 
Heartbeat CPU  0 instructions:   65000003 cycles:   33240343 heartbeat IPC: 1.71603 cumulative IPC: 1.95546 (Simulation time: 0 hr 0 min 58 sec) 
Heartbeat CPU  0 instructions:   66000002 cycles:   33823085 heartbeat IPC: 1.71602 cumulative IPC: 1.95133 (Simulation time: 0 hr 0 min 58 sec) 
Heartbeat CPU  0 instructions:   67000001 cycles:   34405824 heartbeat IPC: 1.71603 cumulative IPC: 1.94734 (Simulation time: 0 hr 0 min 59 sec) 
Heartbeat CPU  0 instructions:   68000000 cycles:   34988567 heartbeat IPC: 1.71602 cumulative IPC: 1.94349 (Simulation time: 0 hr 1 min 0 sec) 
Heartbeat CPU  0 instructions:   69000000 cycles:   35571312 heartbeat IPC: 1.71602 cumulative IPC: 1.93977 (Simulation time: 0 hr 1 min 1 sec) 
Heartbeat CPU  0 instructions:   70000000 cycles:   36097434 heartbeat IPC: 1.90070 cumulative IPC: 1.93920 (Simulation time: 0 hr 1 min 2 sec) 
Heartbeat CPU  0 instructions:   71000003 cycles:   36618084 heartbeat IPC: 1.92068 cumulative IPC: 1.93893 (Simulation time: 0 hr 1 min 3 sec) 
Heartbeat CPU  0 instructions:   72000000 cycles:   37138714 heartbeat IPC: 1.92074 cumulative IPC: 1.93868 (Simulation time: 0 hr 1 min 5 sec) 
Heartbeat CPU  0 instructions:   73000002 cycles:   37659391 heartbeat IPC: 1.92058 cumulative IPC: 1.93843 (Simulation time: 0 hr 1 min 6 sec) 
Heartbeat CPU  0 instructions:   74000002 cycles:   38180021 heartbeat IPC: 1.92075 cumulative IPC: 1.93819 (Simulation time: 0 hr 1 min 7 sec) 
Heartbeat CPU  0 instructions:   75000001 cycles:   38700675 heartbeat IPC: 1.92066 cumulative IPC: 1.93795 (Simulation time: 0 hr 1 min 9 sec) 
Heartbeat CPU  0 instructions:   76000000 cycles:   39221305 heartbeat IPC: 1.92075 cumulative IPC: 1.93772 (Simulation time: 0 hr 1 min 10 sec) 
Heartbeat CPU  0 instructions:   77000001 cycles:   39741982 heartbeat IPC: 1.92058 cumulative IPC: 1.93750 (Simulation time: 0 hr 1 min 11 sec) 
Heartbeat CPU  0 instructions:   78000001 cycles:   40262612 heartbeat IPC: 1.92075 cumulative IPC: 1.93728 (Simulation time: 0 hr 1 min 13 sec) 
Heartbeat CPU  0 instructions:   79000000 cycles:   40783266 heartbeat IPC: 1.92066 cumulative IPC: 1.93707 (Simulation time: 0 hr 1 min 14 sec) 
Heartbeat CPU  0 instructions:   80000000 cycles:   41303896 heartbeat IPC: 1.92075 cumulative IPC: 1.93686 (Simulation time: 0 hr 1 min 15 sec) 
Heartbeat CPU  0 instructions:   81000000 cycles:   41824573 heartbeat IPC: 1.92058 cumulative IPC: 1.93666 (Simulation time: 0 hr 1 min 17 sec) 
Heartbeat CPU  0 instructions:   82000000 cycles:   42345203 heartbeat IPC: 1.92075 cumulative IPC: 1.93646 (Simulation time: 0 hr 1 min 18 sec) 
Heartbeat CPU  0 instructions:   83000003 cycles:   42865855 heartbeat IPC: 1.92067 cumulative IPC: 1.93627 (Simulation time: 0 hr 1 min 19 sec) 
Heartbeat CPU  0 instructions:   84000000 cycles:   43363101 heartbeat IPC: 2.01107 cumulative IPC: 1.93713 (Simulation time: 0 hr 1 min 21 sec) 
Heartbeat CPU  0 instructions:   85000000 cycles:   43783384 heartbeat IPC: 2.37935 cumulative IPC: 1.94138 (Simulation time: 0 hr 1 min 21 sec) 
Heartbeat CPU  0 instructions:   86000001 cycles:   44203671 heartbeat IPC: 2.37933 cumulative IPC: 1.94554 (Simulation time: 0 hr 1 min 22 sec) 
Heartbeat CPU  0 instructions:   87000003 cycles:   44623972 heartbeat IPC: 2.37925 cumulative IPC: 1.94962 (Simulation time: 0 hr 1 min 23 sec) 
Heartbeat CPU  0 instructions:   88000000 cycles:   45044332 heartbeat IPC: 2.37891 cumulative IPC: 1.95363 (Simulation time: 0 hr 1 min 23 sec) 
Heartbeat CPU  0 instructions:   89000001 cycles:   45464612 heartbeat IPC: 2.37937 cumulative IPC: 1.95757 (Simulation time: 0 hr 1 min 24 sec) 
Heartbeat CPU  0 instructions:   90000001 cycles:   45884891 heartbeat IPC: 2.37937 cumulative IPC: 1.96143 (Simulation time: 0 hr 1 min 25 sec) 
Heartbeat CPU  0 instructions:   91000000 cycles:   46305171 heartbeat IPC: 2.37936 cumulative IPC: 1.96522 (Simulation time: 0 hr 1 min 26 sec) 
Heartbeat CPU  0 instructions:   92000000 cycles:   46725478 heartbeat IPC: 2.37921 cumulative IPC: 1.96895 (Simulation time: 0 hr 1 min 26 sec) 
Heartbeat CPU  0 instructions:   93000003 cycles:   47145811 heartbeat IPC: 2.37907 cumulative IPC: 1.97260 (Simulation time: 0 hr 1 min 27 sec) 
Heartbeat CPU  0 instructions:   94000000 cycles:   47566093 heartbeat IPC: 2.37935 cumulative IPC: 1.97620 (Simulation time: 0 hr 1 min 28 sec) 
Heartbeat CPU  0 instructions:   95000002 cycles:   47986376 heartbeat IPC: 2.37935 cumulative IPC: 1.97973 (Simulation time: 0 hr 1 min 29 sec) 
Heartbeat CPU  0 instructions:   96000000 cycles:   48406671 heartbeat IPC: 2.37928 cumulative IPC: 1.98320 (Simulation time: 0 hr 1 min 29 sec) 
Heartbeat CPU  0 instructions:   97000000 cycles:   48827027 heartbeat IPC: 2.37894 cumulative IPC: 1.98660 (Simulation time: 0 hr 1 min 30 sec) 
Heartbeat CPU  0 instructions:   98000000 cycles:   49247317 heartbeat IPC: 2.37931 cumulative IPC: 1.98996 (Simulation time: 0 hr 1 min 31 sec) 
Heartbeat CPU  0 instructions:   99000003 cycles:   49667612 heartbeat IPC: 2.37929 cumulative IPC: 1.99325 (Simulation time: 0 hr 1 min 31 sec) 
Heartbeat CPU  0 instructions:  100000000 cycles:   50087897 heartbeat IPC: 2.37933 cumulative IPC: 1.99649 (Simulation time: 0 hr 1 min 32 sec) 

Warmup complete CPU  0 instructions:  100000001 cycles:   50087899 (Simulation time: 0 hr 1 min 32 sec) 

Heartbeat CPU  0 instructions:  101000003 cycles:   51200110 heartbeat IPC: 0.89911 cumulative IPC: 0.89911 (Simulation time: 0 hr 1 min 33 sec) 
Heartbeat CPU  0 instructions:  102000003 cycles:   52316291 heartbeat IPC: 0.89591 cumulative IPC: 0.89751 (Simulation time: 0 hr 1 min 35 sec) 
Heartbeat CPU  0 instructions:  103000001 cycles:   53433232 heartbeat IPC: 0.89530 cumulative IPC: 0.89677 (Simulation time: 0 hr 1 min 36 sec) 
Heartbeat CPU  0 instructions:  104000000 cycles:   54554842 heartbeat IPC: 0.89157 cumulative IPC: 0.89547 (Simulation time: 0 hr 1 min 38 sec) 
Heartbeat CPU  0 instructions:  105000000 cycles:   55676927 heartbeat IPC: 0.89120 cumulative IPC: 0.89461 (Simulation time: 0 hr 1 min 39 sec) 
Heartbeat CPU  0 instructions:  106000002 cycles:   56806786 heartbeat IPC: 0.88507 cumulative IPC: 0.89301 (Simulation time: 0 hr 1 min 40 sec) 
Heartbeat CPU  0 instructions:  107000000 cycles:   57942539 heartbeat IPC: 0.88047 cumulative IPC: 0.89119 (Simulation time: 0 hr 1 min 42 sec) 
Heartbeat CPU  0 instructions:  108000000 cycles:   59137679 heartbeat IPC: 0.83672 cumulative IPC: 0.88400 (Simulation time: 0 hr 1 min 43 sec) 
Heartbeat CPU  0 instructions:  109000000 cycles:   60389629 heartbeat IPC: 0.79875 cumulative IPC: 0.87364 (Simulation time: 0 hr 1 min 45 sec) 
Heartbeat CPU  0 instructions:  110000001 cycles:   61698054 heartbeat IPC: 0.76428 cumulative IPC: 0.86131 (Simulation time: 0 hr 1 min 46 sec) 
Heartbeat CPU  0 instructions:  111000001 cycles:   63005651 heartbeat IPC: 0.76476 cumulative IPC: 0.85154 (Simulation time: 0 hr 1 min 48 sec) 
Heartbeat CPU  0 instructions:  112000000 cycles:   64315389 heartbeat IPC: 0.76351 cumulative IPC: 0.84344 (Simulation time: 0 hr 1 min 49 sec) 
Heartbeat CPU  0 instructions:  113000002 cycles:   65625434 heartbeat IPC: 0.76333 cumulative IPC: 0.83668 (Simulation time: 0 hr 1 min 50 sec) 
Heartbeat CPU  0 instructions:  114000002 cycles:   66934347 heartbeat IPC: 0.76399 cumulative IPC: 0.83104 (Simulation time: 0 hr 1 min 52 sec) 
Heartbeat CPU  0 instructions:  115000003 cycles:   68242308 heartbeat IPC: 0.76455 cumulative IPC: 0.82625 (Simulation time: 0 hr 1 min 53 sec) 
Heartbeat CPU  0 instructions:  116000000 cycles:   69551108 heartbeat IPC: 0.76406 cumulative IPC: 0.82206 (Simulation time: 0 hr 1 min 55 sec) 
Heartbeat CPU  0 instructions:  117000000 cycles:   70859479 heartbeat IPC: 0.76431 cumulative IPC: 0.81843 (Simulation time: 0 hr 1 min 56 sec) 
Heartbeat CPU  0 instructions:  118000000 cycles:   72168664 heartbeat IPC: 0.76383 cumulative IPC: 0.81519 (Simulation time: 0 hr 1 min 58 sec) 
Heartbeat CPU  0 instructions:  119000001 cycles:   73477493 heartbeat IPC: 0.76404 cumulative IPC: 0.81233 (Simulation time: 0 hr 1 min 59 sec) 
Heartbeat CPU  0 instructions:  120000000 cycles:   74786305 heartbeat IPC: 0.76405 cumulative IPC: 0.80977 (Simulation time: 0 hr 2 min 1 sec) 
Heartbeat CPU  0 instructions:  121000000 cycles:   76096039 heartbeat IPC: 0.76351 cumulative IPC: 0.80744 (Simulation time: 0 hr 2 min 2 sec) 
Heartbeat CPU  0 instructions:  122000002 cycles:   77405702 heartbeat IPC: 0.76356 cumulative IPC: 0.80534 (Simulation time: 0 hr 2 min 4 sec) 
Heartbeat CPU  0 instructions:  123000002 cycles:   78715205 heartbeat IPC: 0.76365 cumulative IPC: 0.80343 (Simulation time: 0 hr 2 min 5 sec) 
Heartbeat CPU  0 instructions:  124000000 cycles:   80024462 heartbeat IPC: 0.76379 cumulative IPC: 0.80170 (Simulation time: 0 hr 2 min 6 sec) 
Heartbeat CPU  0 instructions:  125000003 cycles:   81332566 heartbeat IPC: 0.76447 cumulative IPC: 0.80014 (Simulation time: 0 hr 2 min 8 sec) 
Heartbeat CPU  0 instructions:  126000000 cycles:   82638338 heartbeat IPC: 0.76583 cumulative IPC: 0.79876 (Simulation time: 0 hr 2 min 9 sec) 
Heartbeat CPU  0 instructions:  127000000 cycles:   83947458 heartbeat IPC: 0.76387 cumulative IPC: 0.79741 (Simulation time: 0 hr 2 min 11 sec) 
Heartbeat CPU  0 instructions:  128000000 cycles:   85257810 heartbeat IPC: 0.76315 cumulative IPC: 0.79614 (Simulation time: 0 hr 2 min 12 sec) 
Heartbeat CPU  0 instructions:  129000001 cycles:   86567349 heartbeat IPC: 0.76363 cumulative IPC: 0.79497 (Simulation time: 0 hr 2 min 14 sec) 
Heartbeat CPU  0 instructions:  130000001 cycles:   87876582 heartbeat IPC: 0.76381 cumulative IPC: 0.79389 (Simulation time: 0 hr 2 min 15 sec) 
Heartbeat CPU  0 instructions:  131000000 cycles:   89741356 heartbeat IPC: 0.53626 cumulative IPC: 0.78177 (Simulation time: 0 hr 2 min 17 sec) 
Heartbeat CPU  0 instructions:  132000000 cycles:   92260498 heartbeat IPC: 0.39696 cumulative IPC: 0.75879 (Simulation time: 0 hr 2 min 19 sec) 
Heartbeat CPU  0 instructions:  133000000 cycles:   94777909 heartbeat IPC: 0.39723 cumulative IPC: 0.73842 (Simulation time: 0 hr 2 min 21 sec) 
Heartbeat CPU  0 instructions:  134000000 cycles:   97292113 heartbeat IPC: 0.39774 cumulative IPC: 0.72027 (Simulation time: 0 hr 2 min 23 sec) 
Heartbeat CPU  0 instructions:  135000000 cycles:   99806278 heartbeat IPC: 0.39775 cumulative IPC: 0.70397 (Simulation time: 0 hr 2 min 26 sec) 
Heartbeat CPU  0 instructions:  136000000 cycles:  102314595 heartbeat IPC: 0.39867 cumulative IPC: 0.68930 (Simulation time: 0 hr 2 min 28 sec) 
Heartbeat CPU  0 instructions:  137000000 cycles:  104832611 heartbeat IPC: 0.39714 cumulative IPC: 0.67586 (Simulation time: 0 hr 2 min 30 sec) 
Heartbeat CPU  0 instructions:  138000000 cycles:  107352196 heartbeat IPC: 0.39689 cumulative IPC: 0.66359 (Simulation time: 0 hr 2 min 32 sec) 
Heartbeat CPU  0 instructions:  139000000 cycles:  109865088 heartbeat IPC: 0.39795 cumulative IPC: 0.65242 (Simulation time: 0 hr 2 min 34 sec) 
Heartbeat CPU  0 instructions:  140000000 cycles:  112376525 heartbeat IPC: 0.39818 cumulative IPC: 0.64217 (Simulation time: 0 hr 2 min 36 sec) 
Heartbeat CPU  0 instructions:  141000000 cycles:  114882955 heartbeat IPC: 0.39897 cumulative IPC: 0.63276 (Simulation time: 0 hr 2 min 38 sec) 
Heartbeat CPU  0 instructions:  142000000 cycles:  117382625 heartbeat IPC: 0.40005 cumulative IPC: 0.62412 (Simulation time: 0 hr 2 min 40 sec) 
Heartbeat CPU  0 instructions:  143000000 cycles:  119891694 heartbeat IPC: 0.39855 cumulative IPC: 0.61601 (Simulation time: 0 hr 2 min 43 sec) 
Heartbeat CPU  0 instructions:  144000000 cycles:  122402051 heartbeat IPC: 0.39835 cumulative IPC: 0.60846 (Simulation time: 0 hr 2 min 45 sec) 
Heartbeat CPU  0 instructions:  145000002 cycles:  124666072 heartbeat IPC: 0.44169 cumulative IPC: 0.60339 (Simulation time: 0 hr 2 min 47 sec) 
Heartbeat CPU  0 instructions:  146000000 cycles:  126347292 heartbeat IPC: 0.59480 cumulative IPC: 0.60320 (Simulation time: 0 hr 2 min 48 sec) 
Heartbeat CPU  0 instructions:  147000000 cycles:  127885825 heartbeat IPC: 0.64997 cumulative IPC: 0.60413 (Simulation time: 0 hr 2 min 50 sec) 
Heartbeat CPU  0 instructions:  148000000 cycles:  129153944 heartbeat IPC: 0.78857 cumulative IPC: 0.60709 (Simulation time: 0 hr 2 min 52 sec) 
Heartbeat CPU  0 instructions:  149000000 cycles:  130331823 heartbeat IPC: 0.84898 cumulative IPC: 0.61064 (Simulation time: 0 hr 2 min 53 sec) 
Heartbeat CPU  0 instructions:  150000001 cycles:  131511426 heartbeat IPC: 0.84774 cumulative IPC: 0.61407 (Simulation time: 0 hr 2 min 54 sec) 
Heartbeat CPU  0 instructions:  151000001 cycles:  132705336 heartbeat IPC: 0.83758 cumulative IPC: 0.61730 (Simulation time: 0 hr 2 min 56 sec) 
Heartbeat CPU  0 instructions:  152000000 cycles:  133882782 heartbeat IPC: 0.84930 cumulative IPC: 0.62056 (Simulation time: 0 hr 2 min 57 sec) 
Heartbeat CPU  0 instructions:  153000001 cycles:  135050596 heartbeat IPC: 0.85630 cumulative IPC: 0.62380 (Simulation time: 0 hr 2 min 59 sec) 
Heartbeat CPU  0 instructions:  154000003 cycles:  136226694 heartbeat IPC: 0.85027 cumulative IPC: 0.62690 (Simulation time: 0 hr 3 min 0 sec) 
Heartbeat CPU  0 instructions:  155000001 cycles:  137409646 heartbeat IPC: 0.84534 cumulative IPC: 0.62985 (Simulation time: 0 hr 3 min 1 sec) 
Heartbeat CPU  0 instructions:  156000000 cycles:  138596990 heartbeat IPC: 0.84222 cumulative IPC: 0.63270 (Simulation time: 0 hr 3 min 3 sec) 
Heartbeat CPU  0 instructions:  157000002 cycles:  139771584 heartbeat IPC: 0.85136 cumulative IPC: 0.63557 (Simulation time: 0 hr 3 min 4 sec) 
Heartbeat CPU  0 instructions:  158000000 cycles:  140948346 heartbeat IPC: 0.84979 cumulative IPC: 0.63834 (Simulation time: 0 hr 3 min 6 sec) 
Heartbeat CPU  0 instructions:  159000002 cycles:  142113499 heartbeat IPC: 0.85826 cumulative IPC: 0.64113 (Simulation time: 0 hr 3 min 7 sec) 
Heartbeat CPU  0 instructions:  160000000 cycles:  143279691 heartbeat IPC: 0.85749 cumulative IPC: 0.64383 (Simulation time: 0 hr 3 min 9 sec) 
Heartbeat CPU  0 instructions:  161000000 cycles:  144445824 heartbeat IPC: 0.85754 cumulative IPC: 0.64647 (Simulation time: 0 hr 3 min 10 sec) 
Heartbeat CPU  0 instructions:  162000002 cycles:  145604888 heartbeat IPC: 0.86277 cumulative IPC: 0.64910 (Simulation time: 0 hr 3 min 11 sec) 
Heartbeat CPU  0 instructions:  163000000 cycles:  146759667 heartbeat IPC: 0.86596 cumulative IPC: 0.65169 (Simulation time: 0 hr 3 min 13 sec) 
Heartbeat CPU  0 instructions:  164000000 cycles:  147925561 heartbeat IPC: 0.85771 cumulative IPC: 0.65414 (Simulation time: 0 hr 3 min 14 sec) 
Heartbeat CPU  0 instructions:  165000001 cycles:  149094042 heartbeat IPC: 0.85581 cumulative IPC: 0.65652 (Simulation time: 0 hr 3 min 16 sec) 
Heartbeat CPU  0 instructions:  166000003 cycles:  150266541 heartbeat IPC: 0.85288 cumulative IPC: 0.65882 (Simulation time: 0 hr 3 min 17 sec) 
Heartbeat CPU  0 instructions:  167000001 cycles:  151440628 heartbeat IPC: 0.85172 cumulative IPC: 0.66106 (Simulation time: 0 hr 3 min 18 sec) 
Heartbeat CPU  0 instructions:  168000000 cycles:  152612333 heartbeat IPC: 0.85346 cumulative IPC: 0.66326 (Simulation time: 0 hr 3 min 20 sec) 
Heartbeat CPU  0 instructions:  169000000 cycles:  153791972 heartbeat IPC: 0.84772 cumulative IPC: 0.66535 (Simulation time: 0 hr 3 min 21 sec) 
Heartbeat CPU  0 instructions:  170000003 cycles:  155080303 heartbeat IPC: 0.77620 cumulative IPC: 0.66671 (Simulation time: 0 hr 3 min 23 sec) 
Heartbeat CPU  0 instructions:  171000001 cycles:  156382915 heartbeat IPC: 0.76769 cumulative IPC: 0.66795 (Simulation time: 0 hr 3 min 24 sec) 
Heartbeat CPU  0 instructions:  172000000 cycles:  157684096 heartbeat IPC: 0.76853 cumulative IPC: 0.66917 (Simulation time: 0 hr 3 min 26 sec) 
Heartbeat CPU  0 instructions:  173000001 cycles:  158986965 heartbeat IPC: 0.76754 cumulative IPC: 0.67035 (Simulation time: 0 hr 3 min 27 sec) 
Heartbeat CPU  0 instructions:  174000000 cycles:  160289121 heartbeat IPC: 0.76796 cumulative IPC: 0.67150 (Simulation time: 0 hr 3 min 29 sec) 
Heartbeat CPU  0 instructions:  175000002 cycles:  161592146 heartbeat IPC: 0.76745 cumulative IPC: 0.67262 (Simulation time: 0 hr 3 min 30 sec) 
Heartbeat CPU  0 instructions:  176000000 cycles:  162893520 heartbeat IPC: 0.76842 cumulative IPC: 0.67373 (Simulation time: 0 hr 3 min 32 sec) 
Heartbeat CPU  0 instructions:  177000002 cycles:  164195563 heartbeat IPC: 0.76803 cumulative IPC: 0.67480 (Simulation time: 0 hr 3 min 33 sec) 
Heartbeat CPU  0 instructions:  178000000 cycles:  165498895 heartbeat IPC: 0.76726 cumulative IPC: 0.67585 (Simulation time: 0 hr 3 min 35 sec) 
Heartbeat CPU  0 instructions:  179000003 cycles:  166802490 heartbeat IPC: 0.76711 cumulative IPC: 0.67686 (Simulation time: 0 hr 3 min 36 sec) 
Heartbeat CPU  0 instructions:  180000000 cycles:  168107223 heartbeat IPC: 0.76644 cumulative IPC: 0.67786 (Simulation time: 0 hr 3 min 38 sec) 
Heartbeat CPU  0 instructions:  181000000 cycles:  169408672 heartbeat IPC: 0.76837 cumulative IPC: 0.67884 (Simulation time: 0 hr 3 min 39 sec) 
Heartbeat CPU  0 instructions:  182000001 cycles:  170712178 heartbeat IPC: 0.76716 cumulative IPC: 0.67980 (Simulation time: 0 hr 3 min 41 sec) 
Heartbeat CPU  0 instructions:  183000000 cycles:  172013234 heartbeat IPC: 0.76861 cumulative IPC: 0.68074 (Simulation time: 0 hr 3 min 42 sec) 
Heartbeat CPU  0 instructions:  184000000 cycles:  173314847 heartbeat IPC: 0.76828 cumulative IPC: 0.68167 (Simulation time: 0 hr 3 min 44 sec) 
Heartbeat CPU  0 instructions:  185000001 cycles:  174614674 heartbeat IPC: 0.76933 cumulative IPC: 0.68258 (Simulation time: 0 hr 3 min 45 sec) 
Heartbeat CPU  0 instructions:  186000002 cycles:  175913594 heartbeat IPC: 0.76987 cumulative IPC: 0.68349 (Simulation time: 0 hr 3 min 47 sec) 
Heartbeat CPU  0 instructions:  187000000 cycles:  177213403 heartbeat IPC: 0.76934 cumulative IPC: 0.68436 (Simulation time: 0 hr 3 min 49 sec) 
Heartbeat CPU  0 instructions:  188000000 cycles:  178515375 heartbeat IPC: 0.76807 cumulative IPC: 0.68521 (Simulation time: 0 hr 3 min 50 sec) 
Heartbeat CPU  0 instructions:  189000001 cycles:  179818879 heartbeat IPC: 0.76716 cumulative IPC: 0.68604 (Simulation time: 0 hr 3 min 52 sec) 
Heartbeat CPU  0 instructions:  190000000 cycles:  181122559 heartbeat IPC: 0.76706 cumulative IPC: 0.68684 (Simulation time: 0 hr 3 min 53 sec) 
Heartbeat CPU  0 instructions:  191000000 cycles:  182442358 heartbeat IPC: 0.75769 cumulative IPC: 0.68755 (Simulation time: 0 hr 3 min 55 sec) 
Heartbeat CPU  0 instructions:  192000000 cycles:  184333069 heartbeat IPC: 0.52890 cumulative IPC: 0.68531 (Simulation time: 0 hr 3 min 56 sec) 
Heartbeat CPU  0 instructions:  193000000 cycles:  186835920 heartbeat IPC: 0.39954 cumulative IPC: 0.68008 (Simulation time: 0 hr 3 min 59 sec) 
Heartbeat CPU  0 instructions:  194000000 cycles:  189336293 heartbeat IPC: 0.39994 cumulative IPC: 0.67505 (Simulation time: 0 hr 4 min 1 sec) 
Heartbeat CPU  0 instructions:  195000000 cycles:  191835585 heartbeat IPC: 0.40011 cumulative IPC: 0.67020 (Simulation time: 0 hr 4 min 3 sec) 
Heartbeat CPU  0 instructions:  196000000 cycles:  194336042 heartbeat IPC: 0.39993 cumulative IPC: 0.66552 (Simulation time: 0 hr 4 min 5 sec) 
Heartbeat CPU  0 instructions:  197000000 cycles:  196832037 heartbeat IPC: 0.40064 cumulative IPC: 0.66101 (Simulation time: 0 hr 4 min 7 sec) 
Heartbeat CPU  0 instructions:  198000000 cycles:  199333942 heartbeat IPC: 0.39970 cumulative IPC: 0.65663 (Simulation time: 0 hr 4 min 9 sec) 
Heartbeat CPU  0 instructions:  199000000 cycles:  201838352 heartbeat IPC: 0.39930 cumulative IPC: 0.65239 (Simulation time: 0 hr 4 min 11 sec) 
Heartbeat CPU  0 instructions:  200000000 cycles:  204334795 heartbeat IPC: 0.40057 cumulative IPC: 0.64831 (Simulation time: 0 hr 4 min 13 sec) 
Finished CPU 0 instructions: 100000000 cycles: 154246909 cumulative IPC: 0.64831 (Simulation time: 0 hr 4 min 13 sec) 

ChampSim completed all CPUs

[ROI Statistics]
Core_0_instructions 100000000
Core_0_cycles 154246909
Core_0_IPC 0.64831

Core_0_branch_prediction_accuracy 99.58952
Core_0_branch_MPKI 0.70683
Core_0_average_ROB_occupancy_at_mispredict 218.78955

Core_0_L1D_total_access 20996936
Core_0_L1D_total_hit 18420699
Core_0_L1D_total_miss 2576237
Core_0_L1D_loads 10225964
Core_0_L1D_load_hit 8115411
Core_0_L1D_load_miss 2110553
Core_0_L1D_RFOs 3492975
Core_0_L1D_RFO_hit 3492955
Core_0_L1D_RFO_miss 20
Core_0_L1D_prefetches 7277997
Core_0_L1D_prefetch_hit 6812333
Core_0_L1D_prefetch_miss 465664
Core_0_L1D_writebacks 0
Core_0_L1D_writeback_hit 0
Core_0_L1D_writeback_miss 0
Core_0_L1D_prefetch_requested 41983115
Core_0_L1D_prefetch_issued 41710719
Core_0_L1D_prefetch_useful 2913109
Core_0_L1D_prefetch_useless 30
Core_0_L1D_prefetch_late 1932305
Core_0_L1D_average_miss_latency 95137392.70276

Core_0_L1I_total_access 32546864
Core_0_L1I_total_hit 32546863
Core_0_L1I_total_miss 1
Core_0_L1I_loads 32546864
Core_0_L1I_load_hit 32546863
Core_0_L1I_load_miss 1
Core_0_L1I_RFOs 0
Core_0_L1I_RFO_hit 0
Core_0_L1I_RFO_miss 0
Core_0_L1I_prefetches 0
Core_0_L1I_prefetch_hit 0
Core_0_L1I_prefetch_miss 0
Core_0_L1I_writebacks 0
Core_0_L1I_writeback_hit 0
Core_0_L1I_writeback_miss 0
Core_0_L1I_prefetch_requested 0
Core_0_L1I_prefetch_issued 0
Core_0_L1I_prefetch_useful 0
Core_0_L1I_prefetch_useless 0
Core_0_L1I_prefetch_late 0
Core_0_L1I_average_miss_latency 178.00000

Core_0_L2C_total_access 3692521
Core_0_L2C_total_hit 1116272
Core_0_L2C_total_miss 2576249
Core_0_L2C_loads 178252
Core_0_L2C_load_hit 0
Core_0_L2C_load_miss 178252
Core_0_L2C_RFOs 20
Core_0_L2C_RFO_hit 0
Core_0_L2C_RFO_miss 20
Core_0_L2C_prefetches 2564103
Core_0_L2C_prefetch_hit 166126
Core_0_L2C_prefetch_miss 2397977
Core_0_L2C_writebacks 950146
Core_0_L2C_writeback_hit 950146
Core_0_L2C_writeback_miss 0
Core_0_L2C_prefetch_requested 4371442
Core_0_L2C_prefetch_issued 4300878
Core_0_L2C_prefetch_useful 163848
Core_0_L2C_prefetch_useless 4838444
Core_0_L2C_prefetch_late 26694
Core_0_L2C_average_miss_latency 167.77188

Core_0_LLC_total_access 3954969
Core_0_LLC_total_hit 1364183
Core_0_LLC_total_miss 2590786
Core_0_LLC_loads 151560
Core_0_LLC_load_hit 205
Core_0_LLC_load_miss 151355
Core_0_LLC_RFOs 20
Core_0_LLC_RFO_hit 0
Core_0_LLC_RFO_miss 20
Core_0_LLC_prefetches 2860686
Core_0_LLC_prefetch_hit 436017
Core_0_LLC_prefetch_miss 2424669
Core_0_LLC_writebacks 942703
Core_0_LLC_writeback_hit 927961
Core_0_LLC_writeback_miss 14742
Core_0_LLC_prefetch_requested 4763076
Core_0_LLC_prefetch_issued 4685836
Core_0_LLC_prefetch_useful 184
Core_0_LLC_prefetch_useless 5007466
Core_0_LLC_prefetch_late 13826
Core_0_LLC_average_miss_latency 167.77570

Core_0_major_page_fault 0
Core_0_minor_page_fault 8199

CPU 0 L1D next line prefetcher final stats
CPU 0 L2C next line prefetcher final stats
LLC Next Line Prefetcher Final Stats: none
Channel_0_RQ_row_buffer_hit 1305971
Channel_0_RQ_row_buffer_miss 1270075
Channel_0_WQ_row_buffer_hit 268196
Channel_0_WQ_row_buffer_miss 650588
Channel_0_WQ_full 0
Channel_0_dbus_congested 1857789

avg_congested_cycle 10
