*************************************************
   ChampSim Multicore Out-of-Order Simulator
   Last compiled: Dec 21 2023 19:13:11
*************************************************

trace_0 ./test_trace/462.libquantum-714B.champsimtrace.xz
CPU 0 L1D next line prefetcher
CPU 0 L2C IP-based stride prefetcher
warmup_instructions 100000000
simulation_instructions 100000000
champsim_seed 222

num_cpus 1
cpu_freq 4000
dram_io_freq 2400
page_size 4096
block_size 64
max_read_per_cycle 8
max_fill_per_cycle 1
dram_channels 1
dram_ranks 1
dram_banks 8
dram_rows 65536
dram_columns 128
dram_row_size 8
dram_size 4096
dram_pages 1048576

fetch_width 6
decode_width 6
exec_width 4
lq_width 2
sq_width 2
retire_width 4
scheduler_size 128
branch_mispredict_penalty 20
rob_size 256
lq_size 72
sq_size 56
num_instr_destinations_sparc 4
num_instr_destinations 2
num_instr_sources 4

itlb_set 16
itlb_way 8
itlb_rq_size 16
itlb_wq_size 16
itlb_pq_size 0
itlb_mshr_size 8
itlb_latency 1

dtlb_set 16
dtlb_way 4
dtlb_rq_size 16
dtlb_wq_size 16
dtlb_pq_size 0
dtlb_mshr_size 8
dtlb_latency 1

stlb_set 128
stlb_way 12
stlb_rq_size 32
stlb_wq_size 32
stlb_pq_size 0
stlb_mshr_size 16
stlb_latency 8

l1i_size 32
l1i_set 64
l1i_way 8
l1i_rq_size 64
l1i_wq_size 64
l1i_pq_size 8
l1i_mshr_size 8
l1i_latency 1

l1d_size 32
l1d_set 64
l1d_way 8
l1d_rq_size 64
l1d_wq_size 64
l1d_pq_size 8
l1d_mshr_size 16
l1d_latency 4

l2c_size 512
l2c_set 1024
l2c_way 8
l2c_rq_size 32
l2c_wq_size 32
l2c_pq_size 16
l2c_mshr_size 32
l2c_latency 10

llc_size 2048
llc_set 2048
llc_way 16
llc_rq_size 32
llc_wq_size 32
llc_pq_size 32
llc_mshr_size 64
llc_latency 20

dram_channel_width 8
dram_wq_size 64
dram_rq_size 64
tRP 15
tRCD 15
tCAS 12.5
dram_dbus_turn_around_time 30
dram_write_high_wm 56
dram_write_low_wm 48
min_dram_writes_per_switch 16
dram_mtps 2400
dram_dbus_return_time 13


Heartbeat CPU  0 instructions:    1000000 cycles:     581510 heartbeat IPC: 1.71966 cumulative IPC: 1.71966 (Simulation time: 0 hr 0 min 1 sec) 
Heartbeat CPU  0 instructions:    2000003 cycles:    1163543 heartbeat IPC: 1.71812 cumulative IPC: 1.71889 (Simulation time: 0 hr 0 min 2 sec) 
Heartbeat CPU  0 instructions:    3000002 cycles:    1745575 heartbeat IPC: 1.71812 cumulative IPC: 1.71863 (Simulation time: 0 hr 0 min 2 sec) 
Heartbeat CPU  0 instructions:    4000000 cycles:    2327604 heartbeat IPC: 1.71812 cumulative IPC: 1.71851 (Simulation time: 0 hr 0 min 3 sec) 
Heartbeat CPU  0 instructions:    5000000 cycles:    2909636 heartbeat IPC: 1.71812 cumulative IPC: 1.71843 (Simulation time: 0 hr 0 min 4 sec) 
Heartbeat CPU  0 instructions:    6000000 cycles:    3491670 heartbeat IPC: 1.71811 cumulative IPC: 1.71838 (Simulation time: 0 hr 0 min 5 sec) 
Heartbeat CPU  0 instructions:    7000000 cycles:    4073701 heartbeat IPC: 1.71812 cumulative IPC: 1.71834 (Simulation time: 0 hr 0 min 6 sec) 
Heartbeat CPU  0 instructions:    8000000 cycles:    4655734 heartbeat IPC: 1.71812 cumulative IPC: 1.71831 (Simulation time: 0 hr 0 min 7 sec) 
Heartbeat CPU  0 instructions:    9000002 cycles:    5192889 heartbeat IPC: 1.86166 cumulative IPC: 1.73314 (Simulation time: 0 hr 0 min 8 sec) 
Heartbeat CPU  0 instructions:   10000002 cycles:    5715751 heartbeat IPC: 1.91255 cumulative IPC: 1.74955 (Simulation time: 0 hr 0 min 9 sec) 
Heartbeat CPU  0 instructions:   11000001 cycles:    6238636 heartbeat IPC: 1.91246 cumulative IPC: 1.76321 (Simulation time: 0 hr 0 min 11 sec) 
Heartbeat CPU  0 instructions:   12000000 cycles:    6761498 heartbeat IPC: 1.91255 cumulative IPC: 1.77475 (Simulation time: 0 hr 0 min 12 sec) 
Heartbeat CPU  0 instructions:   13000001 cycles:    7284407 heartbeat IPC: 1.91238 cumulative IPC: 1.78463 (Simulation time: 0 hr 0 min 14 sec) 
Heartbeat CPU  0 instructions:   14000001 cycles:    7807269 heartbeat IPC: 1.91255 cumulative IPC: 1.79320 (Simulation time: 0 hr 0 min 15 sec) 
Heartbeat CPU  0 instructions:   15000000 cycles:    8330154 heartbeat IPC: 1.91246 cumulative IPC: 1.80069 (Simulation time: 0 hr 0 min 17 sec) 
Heartbeat CPU  0 instructions:   16000000 cycles:    8853016 heartbeat IPC: 1.91255 cumulative IPC: 1.80729 (Simulation time: 0 hr 0 min 18 sec) 
Heartbeat CPU  0 instructions:   17000000 cycles:    9375925 heartbeat IPC: 1.91238 cumulative IPC: 1.81315 (Simulation time: 0 hr 0 min 19 sec) 
Heartbeat CPU  0 instructions:   18000000 cycles:    9898787 heartbeat IPC: 1.91255 cumulative IPC: 1.81840 (Simulation time: 0 hr 0 min 21 sec) 
Heartbeat CPU  0 instructions:   19000003 cycles:   10421672 heartbeat IPC: 1.91247 cumulative IPC: 1.82312 (Simulation time: 0 hr 0 min 22 sec) 
Heartbeat CPU  0 instructions:   20000000 cycles:   10944534 heartbeat IPC: 1.91254 cumulative IPC: 1.82740 (Simulation time: 0 hr 0 min 24 sec) 
Heartbeat CPU  0 instructions:   21000003 cycles:   11467443 heartbeat IPC: 1.91238 cumulative IPC: 1.83127 (Simulation time: 0 hr 0 min 25 sec) 
Heartbeat CPU  0 instructions:   22000003 cycles:   11990305 heartbeat IPC: 1.91255 cumulative IPC: 1.83482 (Simulation time: 0 hr 0 min 26 sec) 
Heartbeat CPU  0 instructions:   23000000 cycles:   12504821 heartbeat IPC: 1.94357 cumulative IPC: 1.83929 (Simulation time: 0 hr 0 min 28 sec) 
Heartbeat CPU  0 instructions:   24000000 cycles:   12925102 heartbeat IPC: 2.37936 cumulative IPC: 1.85685 (Simulation time: 0 hr 0 min 28 sec) 
Heartbeat CPU  0 instructions:   25000000 cycles:   13345378 heartbeat IPC: 2.37939 cumulative IPC: 1.87331 (Simulation time: 0 hr 0 min 29 sec) 
Heartbeat CPU  0 instructions:   26000000 cycles:   13765664 heartbeat IPC: 2.37933 cumulative IPC: 1.88876 (Simulation time: 0 hr 0 min 30 sec) 
Heartbeat CPU  0 instructions:   27000000 cycles:   14185975 heartbeat IPC: 2.37919 cumulative IPC: 1.90329 (Simulation time: 0 hr 0 min 31 sec) 
Heartbeat CPU  0 instructions:   28000000 cycles:   14606283 heartbeat IPC: 2.37921 cumulative IPC: 1.91698 (Simulation time: 0 hr 0 min 31 sec) 
Heartbeat CPU  0 instructions:   29000002 cycles:   15026561 heartbeat IPC: 2.37938 cumulative IPC: 1.92992 (Simulation time: 0 hr 0 min 32 sec) 
Heartbeat CPU  0 instructions:   30000003 cycles:   15446827 heartbeat IPC: 2.37945 cumulative IPC: 1.94215 (Simulation time: 0 hr 0 min 33 sec) 
Heartbeat CPU  0 instructions:   31000001 cycles:   15867121 heartbeat IPC: 2.37928 cumulative IPC: 1.95373 (Simulation time: 0 hr 0 min 34 sec) 
Heartbeat CPU  0 instructions:   32000000 cycles:   16287440 heartbeat IPC: 2.37914 cumulative IPC: 1.96470 (Simulation time: 0 hr 0 min 34 sec) 
Heartbeat CPU  0 instructions:   33000003 cycles:   16707714 heartbeat IPC: 2.37941 cumulative IPC: 1.97514 (Simulation time: 0 hr 0 min 35 sec) 
Heartbeat CPU  0 instructions:   34000000 cycles:   17127976 heartbeat IPC: 2.37946 cumulative IPC: 1.98506 (Simulation time: 0 hr 0 min 36 sec) 
Heartbeat CPU  0 instructions:   35000002 cycles:   17548265 heartbeat IPC: 2.37932 cumulative IPC: 1.99450 (Simulation time: 0 hr 0 min 37 sec) 
Heartbeat CPU  0 instructions:   36000000 cycles:   17968578 heartbeat IPC: 2.37917 cumulative IPC: 2.00350 (Simulation time: 0 hr 0 min 37 sec) 
Heartbeat CPU  0 instructions:   37000000 cycles:   18388894 heartbeat IPC: 2.37916 cumulative IPC: 2.01208 (Simulation time: 0 hr 0 min 38 sec) 
Heartbeat CPU  0 instructions:   38000002 cycles:   18809163 heartbeat IPC: 2.37943 cumulative IPC: 2.02029 (Simulation time: 0 hr 0 min 39 sec) 
Heartbeat CPU  0 instructions:   39000000 cycles:   19229446 heartbeat IPC: 2.37934 cumulative IPC: 2.02814 (Simulation time: 0 hr 0 min 40 sec) 
Heartbeat CPU  0 instructions:   40000000 cycles:   19649740 heartbeat IPC: 2.37929 cumulative IPC: 2.03565 (Simulation time: 0 hr 0 min 40 sec) 
Heartbeat CPU  0 instructions:   41000002 cycles:   20070076 heartbeat IPC: 2.37905 cumulative IPC: 2.04284 (Simulation time: 0 hr 0 min 41 sec) 
Heartbeat CPU  0 instructions:   42000003 cycles:   20490346 heartbeat IPC: 2.37943 cumulative IPC: 2.04975 (Simulation time: 0 hr 0 min 42 sec) 
Heartbeat CPU  0 instructions:   43000001 cycles:   20910616 heartbeat IPC: 2.37942 cumulative IPC: 2.05637 (Simulation time: 0 hr 0 min 43 sec) 
Heartbeat CPU  0 instructions:   44000000 cycles:   21330886 heartbeat IPC: 2.37942 cumulative IPC: 2.06274 (Simulation time: 0 hr 0 min 43 sec) 
Heartbeat CPU  0 instructions:   45000001 cycles:   21751189 heartbeat IPC: 2.37924 cumulative IPC: 2.06885 (Simulation time: 0 hr 0 min 44 sec) 
Heartbeat CPU  0 instructions:   46000001 cycles:   22171496 heartbeat IPC: 2.37921 cumulative IPC: 2.07474 (Simulation time: 0 hr 0 min 45 sec) 
Heartbeat CPU  0 instructions:   47000000 cycles:   22751003 heartbeat IPC: 1.72560 cumulative IPC: 2.06584 (Simulation time: 0 hr 0 min 46 sec) 
Heartbeat CPU  0 instructions:   48000000 cycles:   23333742 heartbeat IPC: 1.71603 cumulative IPC: 2.05711 (Simulation time: 0 hr 0 min 47 sec) 
Heartbeat CPU  0 instructions:   49000000 cycles:   23916486 heartbeat IPC: 1.71602 cumulative IPC: 2.04880 (Simulation time: 0 hr 0 min 47 sec) 
Heartbeat CPU  0 instructions:   50000002 cycles:   24499228 heartbeat IPC: 1.71603 cumulative IPC: 2.04088 (Simulation time: 0 hr 0 min 48 sec) 
Heartbeat CPU  0 instructions:   51000002 cycles:   25081969 heartbeat IPC: 1.71603 cumulative IPC: 2.03333 (Simulation time: 0 hr 0 min 49 sec) 
Heartbeat CPU  0 instructions:   52000000 cycles:   25664708 heartbeat IPC: 1.71603 cumulative IPC: 2.02613 (Simulation time: 0 hr 0 min 50 sec) 
Heartbeat CPU  0 instructions:   53000000 cycles:   26247449 heartbeat IPC: 1.71603 cumulative IPC: 2.01924 (Simulation time: 0 hr 0 min 51 sec) 
Heartbeat CPU  0 instructions:   54000003 cycles:   26830192 heartbeat IPC: 1.71603 cumulative IPC: 2.01266 (Simulation time: 0 hr 0 min 52 sec) 
Heartbeat CPU  0 instructions:   55000002 cycles:   27412934 heartbeat IPC: 1.71602 cumulative IPC: 2.00635 (Simulation time: 0 hr 0 min 53 sec) 
Heartbeat CPU  0 instructions:   56000000 cycles:   27995673 heartbeat IPC: 1.71603 cumulative IPC: 2.00031 (Simulation time: 0 hr 0 min 53 sec) 
Heartbeat CPU  0 instructions:   57000000 cycles:   28578415 heartbeat IPC: 1.71603 cumulative IPC: 1.99451 (Simulation time: 0 hr 0 min 54 sec) 
Heartbeat CPU  0 instructions:   58000000 cycles:   29161159 heartbeat IPC: 1.71602 cumulative IPC: 1.98895 (Simulation time: 0 hr 0 min 55 sec) 
Heartbeat CPU  0 instructions:   59000000 cycles:   29743900 heartbeat IPC: 1.71603 cumulative IPC: 1.98360 (Simulation time: 0 hr 0 min 56 sec) 
Heartbeat CPU  0 instructions:   60000000 cycles:   30326643 heartbeat IPC: 1.71602 cumulative IPC: 1.97846 (Simulation time: 0 hr 0 min 57 sec) 
Heartbeat CPU  0 instructions:   61000002 cycles:   30909383 heartbeat IPC: 1.71603 cumulative IPC: 1.97351 (Simulation time: 0 hr 0 min 58 sec) 
Heartbeat CPU  0 instructions:   62000002 cycles:   31492124 heartbeat IPC: 1.71603 cumulative IPC: 1.96875 (Simulation time: 0 hr 0 min 58 sec) 
Heartbeat CPU  0 instructions:   63000001 cycles:   32074866 heartbeat IPC: 1.71602 cumulative IPC: 1.96415 (Simulation time: 0 hr 0 min 59 sec) 
Heartbeat CPU  0 instructions:   64000000 cycles:   32657605 heartbeat IPC: 1.71603 cumulative IPC: 1.95973 (Simulation time: 0 hr 1 min 0 sec) 
Heartbeat CPU  0 instructions:   65000003 cycles:   33240348 heartbeat IPC: 1.71603 cumulative IPC: 1.95545 (Simulation time: 0 hr 1 min 1 sec) 
Heartbeat CPU  0 instructions:   66000002 cycles:   33823090 heartbeat IPC: 1.71602 cumulative IPC: 1.95133 (Simulation time: 0 hr 1 min 2 sec) 
Heartbeat CPU  0 instructions:   67000001 cycles:   34405829 heartbeat IPC: 1.71603 cumulative IPC: 1.94734 (Simulation time: 0 hr 1 min 3 sec) 
Heartbeat CPU  0 instructions:   68000000 cycles:   34988572 heartbeat IPC: 1.71602 cumulative IPC: 1.94349 (Simulation time: 0 hr 1 min 4 sec) 
Heartbeat CPU  0 instructions:   69000000 cycles:   35571317 heartbeat IPC: 1.71602 cumulative IPC: 1.93977 (Simulation time: 0 hr 1 min 4 sec) 
Heartbeat CPU  0 instructions:   70000000 cycles:   36097439 heartbeat IPC: 1.90070 cumulative IPC: 1.93920 (Simulation time: 0 hr 1 min 6 sec) 
Heartbeat CPU  0 instructions:   71000003 cycles:   36618089 heartbeat IPC: 1.92068 cumulative IPC: 1.93893 (Simulation time: 0 hr 1 min 7 sec) 
Heartbeat CPU  0 instructions:   72000000 cycles:   37138719 heartbeat IPC: 1.92074 cumulative IPC: 1.93868 (Simulation time: 0 hr 1 min 9 sec) 
Heartbeat CPU  0 instructions:   73000002 cycles:   37659396 heartbeat IPC: 1.92058 cumulative IPC: 1.93843 (Simulation time: 0 hr 1 min 10 sec) 
Heartbeat CPU  0 instructions:   74000002 cycles:   38180026 heartbeat IPC: 1.92075 cumulative IPC: 1.93819 (Simulation time: 0 hr 1 min 11 sec) 
Heartbeat CPU  0 instructions:   75000001 cycles:   38700680 heartbeat IPC: 1.92066 cumulative IPC: 1.93795 (Simulation time: 0 hr 1 min 13 sec) 
Heartbeat CPU  0 instructions:   76000000 cycles:   39221310 heartbeat IPC: 1.92075 cumulative IPC: 1.93772 (Simulation time: 0 hr 1 min 14 sec) 
Heartbeat CPU  0 instructions:   77000001 cycles:   39741987 heartbeat IPC: 1.92058 cumulative IPC: 1.93750 (Simulation time: 0 hr 1 min 15 sec) 
Heartbeat CPU  0 instructions:   78000001 cycles:   40262617 heartbeat IPC: 1.92075 cumulative IPC: 1.93728 (Simulation time: 0 hr 1 min 17 sec) 
Heartbeat CPU  0 instructions:   79000000 cycles:   40783271 heartbeat IPC: 1.92066 cumulative IPC: 1.93707 (Simulation time: 0 hr 1 min 18 sec) 
Heartbeat CPU  0 instructions:   80000000 cycles:   41303901 heartbeat IPC: 1.92075 cumulative IPC: 1.93686 (Simulation time: 0 hr 1 min 20 sec) 
Heartbeat CPU  0 instructions:   81000000 cycles:   41824578 heartbeat IPC: 1.92058 cumulative IPC: 1.93666 (Simulation time: 0 hr 1 min 21 sec) 
Heartbeat CPU  0 instructions:   82000000 cycles:   42345208 heartbeat IPC: 1.92075 cumulative IPC: 1.93646 (Simulation time: 0 hr 1 min 22 sec) 
Heartbeat CPU  0 instructions:   83000003 cycles:   42865860 heartbeat IPC: 1.92067 cumulative IPC: 1.93627 (Simulation time: 0 hr 1 min 24 sec) 
Heartbeat CPU  0 instructions:   84000000 cycles:   43363106 heartbeat IPC: 2.01107 cumulative IPC: 1.93713 (Simulation time: 0 hr 1 min 25 sec) 
Heartbeat CPU  0 instructions:   85000000 cycles:   43783389 heartbeat IPC: 2.37935 cumulative IPC: 1.94138 (Simulation time: 0 hr 1 min 26 sec) 
Heartbeat CPU  0 instructions:   86000001 cycles:   44203676 heartbeat IPC: 2.37933 cumulative IPC: 1.94554 (Simulation time: 0 hr 1 min 27 sec) 
Heartbeat CPU  0 instructions:   87000003 cycles:   44623977 heartbeat IPC: 2.37925 cumulative IPC: 1.94962 (Simulation time: 0 hr 1 min 27 sec) 
Heartbeat CPU  0 instructions:   88000000 cycles:   45044337 heartbeat IPC: 2.37891 cumulative IPC: 1.95363 (Simulation time: 0 hr 1 min 28 sec) 
Heartbeat CPU  0 instructions:   89000001 cycles:   45464617 heartbeat IPC: 2.37937 cumulative IPC: 1.95757 (Simulation time: 0 hr 1 min 29 sec) 
Heartbeat CPU  0 instructions:   90000001 cycles:   45884896 heartbeat IPC: 2.37937 cumulative IPC: 1.96143 (Simulation time: 0 hr 1 min 30 sec) 
Heartbeat CPU  0 instructions:   91000000 cycles:   46305176 heartbeat IPC: 2.37936 cumulative IPC: 1.96522 (Simulation time: 0 hr 1 min 30 sec) 
Heartbeat CPU  0 instructions:   92000000 cycles:   46725483 heartbeat IPC: 2.37921 cumulative IPC: 1.96895 (Simulation time: 0 hr 1 min 31 sec) 
Heartbeat CPU  0 instructions:   93000003 cycles:   47145816 heartbeat IPC: 2.37907 cumulative IPC: 1.97260 (Simulation time: 0 hr 1 min 32 sec) 
Heartbeat CPU  0 instructions:   94000000 cycles:   47566098 heartbeat IPC: 2.37935 cumulative IPC: 1.97620 (Simulation time: 0 hr 1 min 33 sec) 
Heartbeat CPU  0 instructions:   95000002 cycles:   47986381 heartbeat IPC: 2.37935 cumulative IPC: 1.97973 (Simulation time: 0 hr 1 min 33 sec) 
Heartbeat CPU  0 instructions:   96000000 cycles:   48406676 heartbeat IPC: 2.37928 cumulative IPC: 1.98320 (Simulation time: 0 hr 1 min 34 sec) 
Heartbeat CPU  0 instructions:   97000000 cycles:   48827032 heartbeat IPC: 2.37894 cumulative IPC: 1.98660 (Simulation time: 0 hr 1 min 35 sec) 
Heartbeat CPU  0 instructions:   98000000 cycles:   49247322 heartbeat IPC: 2.37931 cumulative IPC: 1.98996 (Simulation time: 0 hr 1 min 36 sec) 
Heartbeat CPU  0 instructions:   99000003 cycles:   49667617 heartbeat IPC: 2.37929 cumulative IPC: 1.99325 (Simulation time: 0 hr 1 min 36 sec) 
Heartbeat CPU  0 instructions:  100000000 cycles:   50087902 heartbeat IPC: 2.37933 cumulative IPC: 1.99649 (Simulation time: 0 hr 1 min 37 sec) 

Warmup complete CPU  0 instructions:  100000001 cycles:   50087904 (Simulation time: 0 hr 1 min 37 sec) 

Heartbeat CPU  0 instructions:  101000003 cycles:   51235537 heartbeat IPC: 0.87136 cumulative IPC: 0.87136 (Simulation time: 0 hr 1 min 39 sec) 
Heartbeat CPU  0 instructions:  102000003 cycles:   52379559 heartbeat IPC: 0.87411 cumulative IPC: 0.87273 (Simulation time: 0 hr 1 min 40 sec) 
Heartbeat CPU  0 instructions:  103000001 cycles:   53522587 heartbeat IPC: 0.87487 cumulative IPC: 0.87344 (Simulation time: 0 hr 1 min 41 sec) 
Heartbeat CPU  0 instructions:  104000000 cycles:   54667091 heartbeat IPC: 0.87374 cumulative IPC: 0.87352 (Simulation time: 0 hr 1 min 43 sec) 
Heartbeat CPU  0 instructions:  105000000 cycles:   55811505 heartbeat IPC: 0.87381 cumulative IPC: 0.87358 (Simulation time: 0 hr 1 min 44 sec) 
Heartbeat CPU  0 instructions:  106000002 cycles:   56957303 heartbeat IPC: 0.87276 cumulative IPC: 0.87344 (Simulation time: 0 hr 1 min 46 sec) 
Heartbeat CPU  0 instructions:  107000001 cycles:   58107830 heartbeat IPC: 0.86917 cumulative IPC: 0.87283 (Simulation time: 0 hr 1 min 47 sec) 
Heartbeat CPU  0 instructions:  108000000 cycles:   59271900 heartbeat IPC: 0.85905 cumulative IPC: 0.87108 (Simulation time: 0 hr 1 min 49 sec) 
Heartbeat CPU  0 instructions:  109000000 cycles:   60487110 heartbeat IPC: 0.82290 cumulative IPC: 0.86545 (Simulation time: 0 hr 1 min 50 sec) 
Heartbeat CPU  0 instructions:  110000001 cycles:   61725017 heartbeat IPC: 0.80782 cumulative IPC: 0.85932 (Simulation time: 0 hr 1 min 52 sec) 
Heartbeat CPU  0 instructions:  111000001 cycles:   62962392 heartbeat IPC: 0.80816 cumulative IPC: 0.85440 (Simulation time: 0 hr 1 min 53 sec) 
Heartbeat CPU  0 instructions:  112000000 cycles:   64200347 heartbeat IPC: 0.80778 cumulative IPC: 0.85031 (Simulation time: 0 hr 1 min 54 sec) 
Heartbeat CPU  0 instructions:  113000002 cycles:   65439656 heartbeat IPC: 0.80690 cumulative IPC: 0.84681 (Simulation time: 0 hr 1 min 56 sec) 
Heartbeat CPU  0 instructions:  114000002 cycles:   66676495 heartbeat IPC: 0.80851 cumulative IPC: 0.84395 (Simulation time: 0 hr 1 min 57 sec) 
Heartbeat CPU  0 instructions:  115000003 cycles:   67910770 heartbeat IPC: 0.81019 cumulative IPC: 0.84162 (Simulation time: 0 hr 1 min 59 sec) 
Heartbeat CPU  0 instructions:  116000000 cycles:   69145076 heartbeat IPC: 0.81017 cumulative IPC: 0.83958 (Simulation time: 0 hr 2 min 0 sec) 
Heartbeat CPU  0 instructions:  117000000 cycles:   70383676 heartbeat IPC: 0.80736 cumulative IPC: 0.83761 (Simulation time: 0 hr 2 min 1 sec) 
Heartbeat CPU  0 instructions:  118000000 cycles:   71622203 heartbeat IPC: 0.80741 cumulative IPC: 0.83588 (Simulation time: 0 hr 2 min 3 sec) 
Heartbeat CPU  0 instructions:  119000001 cycles:   72859793 heartbeat IPC: 0.80802 cumulative IPC: 0.83436 (Simulation time: 0 hr 2 min 4 sec) 
Heartbeat CPU  0 instructions:  120000000 cycles:   74092739 heartbeat IPC: 0.81106 cumulative IPC: 0.83317 (Simulation time: 0 hr 2 min 6 sec) 
Heartbeat CPU  0 instructions:  121000000 cycles:   75328185 heartbeat IPC: 0.80942 cumulative IPC: 0.83200 (Simulation time: 0 hr 2 min 7 sec) 
Heartbeat CPU  0 instructions:  122000002 cycles:   76563830 heartbeat IPC: 0.80930 cumulative IPC: 0.83094 (Simulation time: 0 hr 2 min 9 sec) 
Heartbeat CPU  0 instructions:  123000002 cycles:   77800469 heartbeat IPC: 0.80864 cumulative IPC: 0.82995 (Simulation time: 0 hr 2 min 10 sec) 
Heartbeat CPU  0 instructions:  124000000 cycles:   79037031 heartbeat IPC: 0.80869 cumulative IPC: 0.82904 (Simulation time: 0 hr 2 min 11 sec) 
Heartbeat CPU  0 instructions:  125000003 cycles:   80272749 heartbeat IPC: 0.80925 cumulative IPC: 0.82823 (Simulation time: 0 hr 2 min 13 sec) 
Heartbeat CPU  0 instructions:  126000000 cycles:   81508364 heartbeat IPC: 0.80931 cumulative IPC: 0.82749 (Simulation time: 0 hr 2 min 14 sec) 
Heartbeat CPU  0 instructions:  127000000 cycles:   82747693 heartbeat IPC: 0.80689 cumulative IPC: 0.82670 (Simulation time: 0 hr 2 min 16 sec) 
Heartbeat CPU  0 instructions:  128000000 cycles:   83984176 heartbeat IPC: 0.80875 cumulative IPC: 0.82605 (Simulation time: 0 hr 2 min 17 sec) 
Heartbeat CPU  0 instructions:  129000001 cycles:   85223506 heartbeat IPC: 0.80689 cumulative IPC: 0.82537 (Simulation time: 0 hr 2 min 18 sec) 
Heartbeat CPU  0 instructions:  130000001 cycles:   86457909 heartbeat IPC: 0.81011 cumulative IPC: 0.82486 (Simulation time: 0 hr 2 min 20 sec) 
Heartbeat CPU  0 instructions:  131000000 cycles:   88091392 heartbeat IPC: 0.61219 cumulative IPC: 0.81571 (Simulation time: 0 hr 2 min 22 sec) 
Heartbeat CPU  0 instructions:  132000000 cycles:   90505172 heartbeat IPC: 0.41429 cumulative IPC: 0.79174 (Simulation time: 0 hr 2 min 24 sec) 
Heartbeat CPU  0 instructions:  133000000 cycles:   92918330 heartbeat IPC: 0.41439 cumulative IPC: 0.77048 (Simulation time: 0 hr 2 min 26 sec) 
Heartbeat CPU  0 instructions:  134000000 cycles:   95332923 heartbeat IPC: 0.41415 cumulative IPC: 0.75146 (Simulation time: 0 hr 2 min 28 sec) 
Heartbeat CPU  0 instructions:  135000000 cycles:   97746778 heartbeat IPC: 0.41428 cumulative IPC: 0.73439 (Simulation time: 0 hr 2 min 30 sec) 
Heartbeat CPU  0 instructions:  136000000 cycles:  100160447 heartbeat IPC: 0.41431 cumulative IPC: 0.71896 (Simulation time: 0 hr 2 min 33 sec) 
Heartbeat CPU  0 instructions:  137000000 cycles:  102576905 heartbeat IPC: 0.41383 cumulative IPC: 0.70491 (Simulation time: 0 hr 2 min 35 sec) 
Heartbeat CPU  0 instructions:  138000000 cycles:  104992795 heartbeat IPC: 0.41393 cumulative IPC: 0.69211 (Simulation time: 0 hr 2 min 37 sec) 
Heartbeat CPU  0 instructions:  139000000 cycles:  107406309 heartbeat IPC: 0.41433 cumulative IPC: 0.68041 (Simulation time: 0 hr 2 min 39 sec) 
Heartbeat CPU  0 instructions:  140000000 cycles:  109820161 heartbeat IPC: 0.41428 cumulative IPC: 0.66965 (Simulation time: 0 hr 2 min 41 sec) 
Heartbeat CPU  0 instructions:  141000000 cycles:  112235631 heartbeat IPC: 0.41400 cumulative IPC: 0.65972 (Simulation time: 0 hr 2 min 43 sec) 
Heartbeat CPU  0 instructions:  142000000 cycles:  114649776 heartbeat IPC: 0.41423 cumulative IPC: 0.65054 (Simulation time: 0 hr 2 min 46 sec) 
Heartbeat CPU  0 instructions:  143000000 cycles:  117063797 heartbeat IPC: 0.41425 cumulative IPC: 0.64202 (Simulation time: 0 hr 2 min 48 sec) 
Heartbeat CPU  0 instructions:  144000000 cycles:  119478492 heartbeat IPC: 0.41413 cumulative IPC: 0.63409 (Simulation time: 0 hr 2 min 50 sec) 
Heartbeat CPU  0 instructions:  145000002 cycles:  121707005 heartbeat IPC: 0.44873 cumulative IPC: 0.62832 (Simulation time: 0 hr 2 min 52 sec) 
Heartbeat CPU  0 instructions:  146000000 cycles:  123528430 heartbeat IPC: 0.54902 cumulative IPC: 0.62636 (Simulation time: 0 hr 2 min 54 sec) 
Heartbeat CPU  0 instructions:  147000000 cycles:  124773434 heartbeat IPC: 0.80321 cumulative IPC: 0.62931 (Simulation time: 0 hr 2 min 55 sec) 
Heartbeat CPU  0 instructions:  148000000 cycles:  125920125 heartbeat IPC: 0.87207 cumulative IPC: 0.63298 (Simulation time: 0 hr 2 min 57 sec) 
Heartbeat CPU  0 instructions:  149000000 cycles:  127069002 heartbeat IPC: 0.87042 cumulative IPC: 0.63652 (Simulation time: 0 hr 2 min 58 sec) 
Heartbeat CPU  0 instructions:  150000001 cycles:  128214902 heartbeat IPC: 0.87268 cumulative IPC: 0.63998 (Simulation time: 0 hr 2 min 59 sec) 
Heartbeat CPU  0 instructions:  151000001 cycles:  129364300 heartbeat IPC: 0.87002 cumulative IPC: 0.64332 (Simulation time: 0 hr 3 min 1 sec) 
Heartbeat CPU  0 instructions:  152000000 cycles:  130510679 heartbeat IPC: 0.87231 cumulative IPC: 0.64658 (Simulation time: 0 hr 3 min 2 sec) 
Heartbeat CPU  0 instructions:  153000001 cycles:  131657472 heartbeat IPC: 0.87200 cumulative IPC: 0.64975 (Simulation time: 0 hr 3 min 4 sec) 
Heartbeat CPU  0 instructions:  154000003 cycles:  132805967 heartbeat IPC: 0.87071 cumulative IPC: 0.65282 (Simulation time: 0 hr 3 min 5 sec) 
Heartbeat CPU  0 instructions:  155000001 cycles:  133955924 heartbeat IPC: 0.86960 cumulative IPC: 0.65579 (Simulation time: 0 hr 3 min 7 sec) 
Heartbeat CPU  0 instructions:  156000000 cycles:  135105644 heartbeat IPC: 0.86978 cumulative IPC: 0.65869 (Simulation time: 0 hr 3 min 8 sec) 
Heartbeat CPU  0 instructions:  157000002 cycles:  136253449 heartbeat IPC: 0.87123 cumulative IPC: 0.66152 (Simulation time: 0 hr 3 min 9 sec) 
Heartbeat CPU  0 instructions:  158000000 cycles:  137399764 heartbeat IPC: 0.87236 cumulative IPC: 0.66429 (Simulation time: 0 hr 3 min 11 sec) 
Heartbeat CPU  0 instructions:  159000002 cycles:  138544500 heartbeat IPC: 0.87357 cumulative IPC: 0.66699 (Simulation time: 0 hr 3 min 12 sec) 
Heartbeat CPU  0 instructions:  160000000 cycles:  139693418 heartbeat IPC: 0.87038 cumulative IPC: 0.66960 (Simulation time: 0 hr 3 min 14 sec) 
Heartbeat CPU  0 instructions:  161000000 cycles:  140839991 heartbeat IPC: 0.87216 cumulative IPC: 0.67216 (Simulation time: 0 hr 3 min 15 sec) 
Heartbeat CPU  0 instructions:  162000002 cycles:  141989761 heartbeat IPC: 0.86974 cumulative IPC: 0.67463 (Simulation time: 0 hr 3 min 16 sec) 
Heartbeat CPU  0 instructions:  163000000 cycles:  143138196 heartbeat IPC: 0.87075 cumulative IPC: 0.67705 (Simulation time: 0 hr 3 min 18 sec) 
Heartbeat CPU  0 instructions:  164000000 cycles:  144288226 heartbeat IPC: 0.86954 cumulative IPC: 0.67940 (Simulation time: 0 hr 3 min 19 sec) 
Heartbeat CPU  0 instructions:  165000001 cycles:  145435809 heartbeat IPC: 0.87140 cumulative IPC: 0.68171 (Simulation time: 0 hr 3 min 21 sec) 
Heartbeat CPU  0 instructions:  166000003 cycles:  146584528 heartbeat IPC: 0.87054 cumulative IPC: 0.68396 (Simulation time: 0 hr 3 min 22 sec) 
Heartbeat CPU  0 instructions:  167000001 cycles:  147731559 heartbeat IPC: 0.87181 cumulative IPC: 0.68617 (Simulation time: 0 hr 3 min 24 sec) 
Heartbeat CPU  0 instructions:  168000000 cycles:  148884178 heartbeat IPC: 0.86759 cumulative IPC: 0.68829 (Simulation time: 0 hr 3 min 25 sec) 
Heartbeat CPU  0 instructions:  169000000 cycles:  150050239 heartbeat IPC: 0.85759 cumulative IPC: 0.69026 (Simulation time: 0 hr 3 min 26 sec) 
Heartbeat CPU  0 instructions:  170000003 cycles:  151296403 heartbeat IPC: 0.80247 cumulative IPC: 0.69164 (Simulation time: 0 hr 3 min 28 sec) 
Heartbeat CPU  0 instructions:  171000001 cycles:  152558990 heartbeat IPC: 0.79202 cumulative IPC: 0.69288 (Simulation time: 0 hr 3 min 29 sec) 
Heartbeat CPU  0 instructions:  172000000 cycles:  153819028 heartbeat IPC: 0.79363 cumulative IPC: 0.69410 (Simulation time: 0 hr 3 min 31 sec) 
Heartbeat CPU  0 instructions:  173000001 cycles:  155079018 heartbeat IPC: 0.79366 cumulative IPC: 0.69530 (Simulation time: 0 hr 3 min 32 sec) 
Heartbeat CPU  0 instructions:  174000000 cycles:  156333698 heartbeat IPC: 0.79702 cumulative IPC: 0.69650 (Simulation time: 0 hr 3 min 34 sec) 
Heartbeat CPU  0 instructions:  175000002 cycles:  157595907 heartbeat IPC: 0.79226 cumulative IPC: 0.69762 (Simulation time: 0 hr 3 min 35 sec) 
Heartbeat CPU  0 instructions:  176000000 cycles:  158863749 heartbeat IPC: 0.78874 cumulative IPC: 0.69868 (Simulation time: 0 hr 3 min 37 sec) 
Heartbeat CPU  0 instructions:  177000002 cycles:  160120262 heartbeat IPC: 0.79585 cumulative IPC: 0.69979 (Simulation time: 0 hr 3 min 38 sec) 
Heartbeat CPU  0 instructions:  178000000 cycles:  161388403 heartbeat IPC: 0.78855 cumulative IPC: 0.70081 (Simulation time: 0 hr 3 min 40 sec) 
Heartbeat CPU  0 instructions:  179000003 cycles:  162657697 heartbeat IPC: 0.78784 cumulative IPC: 0.70179 (Simulation time: 0 hr 3 min 41 sec) 
Heartbeat CPU  0 instructions:  180000000 cycles:  163924744 heartbeat IPC: 0.78923 cumulative IPC: 0.70276 (Simulation time: 0 hr 3 min 43 sec) 
Heartbeat CPU  0 instructions:  181000000 cycles:  165191671 heartbeat IPC: 0.78931 cumulative IPC: 0.70371 (Simulation time: 0 hr 3 min 44 sec) 
Heartbeat CPU  0 instructions:  182000001 cycles:  166456102 heartbeat IPC: 0.79087 cumulative IPC: 0.70466 (Simulation time: 0 hr 3 min 46 sec) 
Heartbeat CPU  0 instructions:  183000000 cycles:  167716228 heartbeat IPC: 0.79357 cumulative IPC: 0.70561 (Simulation time: 0 hr 3 min 47 sec) 
Heartbeat CPU  0 instructions:  184000000 cycles:  168985834 heartbeat IPC: 0.78765 cumulative IPC: 0.70649 (Simulation time: 0 hr 3 min 49 sec) 
Heartbeat CPU  0 instructions:  185000001 cycles:  170256022 heartbeat IPC: 0.78729 cumulative IPC: 0.70734 (Simulation time: 0 hr 3 min 50 sec) 
Heartbeat CPU  0 instructions:  186000002 cycles:  171518742 heartbeat IPC: 0.79194 cumulative IPC: 0.70822 (Simulation time: 0 hr 3 min 52 sec) 
Heartbeat CPU  0 instructions:  187000000 cycles:  172782075 heartbeat IPC: 0.79156 cumulative IPC: 0.70908 (Simulation time: 0 hr 3 min 53 sec) 
Heartbeat CPU  0 instructions:  188000000 cycles:  174048459 heartbeat IPC: 0.78965 cumulative IPC: 0.70990 (Simulation time: 0 hr 3 min 55 sec) 
Heartbeat CPU  0 instructions:  189000001 cycles:  175310468 heartbeat IPC: 0.79239 cumulative IPC: 0.71073 (Simulation time: 0 hr 3 min 56 sec) 
Heartbeat CPU  0 instructions:  190000000 cycles:  176579657 heartbeat IPC: 0.78790 cumulative IPC: 0.71151 (Simulation time: 0 hr 3 min 58 sec) 
Heartbeat CPU  0 instructions:  191000000 cycles:  177862404 heartbeat IPC: 0.77958 cumulative IPC: 0.71219 (Simulation time: 0 hr 3 min 59 sec) 
Heartbeat CPU  0 instructions:  192000000 cycles:  179626713 heartbeat IPC: 0.56679 cumulative IPC: 0.71021 (Simulation time: 0 hr 4 min 1 sec) 
Heartbeat CPU  0 instructions:  193000000 cycles:  182126275 heartbeat IPC: 0.40007 cumulative IPC: 0.70434 (Simulation time: 0 hr 4 min 3 sec) 
Heartbeat CPU  0 instructions:  194000000 cycles:  184624798 heartbeat IPC: 0.40024 cumulative IPC: 0.69869 (Simulation time: 0 hr 4 min 5 sec) 
Heartbeat CPU  0 instructions:  195000002 cycles:  187124834 heartbeat IPC: 0.40000 cumulative IPC: 0.69324 (Simulation time: 0 hr 4 min 8 sec) 
Heartbeat CPU  0 instructions:  196000000 cycles:  189625837 heartbeat IPC: 0.39984 cumulative IPC: 0.68798 (Simulation time: 0 hr 4 min 10 sec) 
Heartbeat CPU  0 instructions:  197000000 cycles:  192124226 heartbeat IPC: 0.40026 cumulative IPC: 0.68292 (Simulation time: 0 hr 4 min 12 sec) 
Heartbeat CPU  0 instructions:  198000000 cycles:  194626489 heartbeat IPC: 0.39964 cumulative IPC: 0.67802 (Simulation time: 0 hr 4 min 14 sec) 
Heartbeat CPU  0 instructions:  199000000 cycles:  197132255 heartbeat IPC: 0.39908 cumulative IPC: 0.67327 (Simulation time: 0 hr 4 min 16 sec) 
Heartbeat CPU  0 instructions:  200000000 cycles:  199630430 heartbeat IPC: 0.40029 cumulative IPC: 0.66871 (Simulation time: 0 hr 4 min 19 sec) 
Finished CPU 0 instructions: 100000000 cycles: 149542539 cumulative IPC: 0.66871 (Simulation time: 0 hr 4 min 19 sec) 

ChampSim completed all CPUs

[ROI Statistics]
Core_0_instructions 100000000
Core_0_cycles 149542539
Core_0_IPC 0.66871

Core_0_branch_prediction_accuracy 99.58952
Core_0_branch_MPKI 0.70683
Core_0_average_ROB_occupancy_at_mispredict 218.78749

Core_0_L1D_total_access 21612344
Core_0_L1D_total_hit 19036106
Core_0_L1D_total_miss 2576238
Core_0_L1D_loads 10584364
Core_0_L1D_load_hit 8733610
Core_0_L1D_load_miss 1850754
Core_0_L1D_RFOs 3492975
Core_0_L1D_RFO_hit 3492955
Core_0_L1D_RFO_miss 20
Core_0_L1D_prefetches 7535005
Core_0_L1D_prefetch_hit 6809541
Core_0_L1D_prefetch_miss 725464
Core_0_L1D_writebacks 0
Core_0_L1D_writeback_hit 0
Core_0_L1D_writeback_miss 0
Core_0_L1D_prefetch_requested 41726360
Core_0_L1D_prefetch_issued 41464431
Core_0_L1D_prefetch_useful 3148228
Core_0_L1D_prefetch_useless 30
Core_0_L1D_prefetch_late 1708109
Core_0_L1D_average_miss_latency 81520444.59752

Core_0_L1I_total_access 31944229
Core_0_L1I_total_hit 31944228
Core_0_L1I_total_miss 1
Core_0_L1I_loads 31944229
Core_0_L1I_load_hit 31944228
Core_0_L1I_load_miss 1
Core_0_L1I_RFOs 0
Core_0_L1I_RFO_hit 0
Core_0_L1I_RFO_miss 0
Core_0_L1I_prefetches 0
Core_0_L1I_prefetch_hit 0
Core_0_L1I_prefetch_miss 0
Core_0_L1I_writebacks 0
Core_0_L1I_writeback_hit 0
Core_0_L1I_writeback_miss 0
Core_0_L1I_prefetch_requested 0
Core_0_L1I_prefetch_issued 0
Core_0_L1I_prefetch_useful 0
Core_0_L1I_prefetch_useless 0
Core_0_L1I_prefetch_late 0
Core_0_L1I_average_miss_latency 261.00000

Core_0_L2C_total_access 4097911
Core_0_L2C_total_hit 1521666
Core_0_L2C_total_miss 2576245
Core_0_L2C_loads 167329
Core_0_L2C_load_hit 13151
Core_0_L2C_load_miss 154178
Core_0_L2C_RFOs 20
Core_0_L2C_RFO_hit 0
Core_0_L2C_RFO_miss 20
Core_0_L2C_prefetches 2980416
Core_0_L2C_prefetch_hit 558369
Core_0_L2C_prefetch_miss 2422047
Core_0_L2C_writebacks 950146
Core_0_L2C_writeback_hit 950146
Core_0_L2C_writeback_miss 0
Core_0_L2C_prefetch_requested 9797998
Core_0_L2C_prefetch_issued 9797998
Core_0_L2C_prefetch_useful 168907
Core_0_L2C_prefetch_useless 4849222
Core_0_L2C_prefetch_late 72194
Core_0_L2C_average_miss_latency 183.49582

Core_0_LLC_total_access 3518949
Core_0_LLC_total_hit 942703
Core_0_LLC_total_miss 2576246
Core_0_LLC_loads 81984
Core_0_LLC_load_hit 0
Core_0_LLC_load_miss 81984
Core_0_LLC_RFOs 20
Core_0_LLC_RFO_hit 0
Core_0_LLC_RFO_miss 20
Core_0_LLC_prefetches 2494242
Core_0_LLC_prefetch_hit 0
Core_0_LLC_prefetch_miss 2494242
Core_0_LLC_writebacks 942703
Core_0_LLC_writeback_hit 942703
Core_0_LLC_writeback_miss 0
Core_0_LLC_prefetch_requested 0
Core_0_LLC_prefetch_issued 0
Core_0_LLC_prefetch_useful 0
Core_0_LLC_prefetch_useless 5065760
Core_0_LLC_prefetch_late 0
Core_0_LLC_average_miss_latency 153.55881

Core_0_major_page_fault 0
Core_0_minor_page_fault 8199

CPU 0 L1D next line prefetcher final stats
CPU 0 L2C PC-based stride prefetcher final stats
Channel_0_RQ_row_buffer_hit 1592794
Channel_0_RQ_row_buffer_miss 983453
Channel_0_WQ_row_buffer_hit 458963
Channel_0_WQ_row_buffer_miss 459888
Channel_0_WQ_full 0
Channel_0_dbus_congested 2357196

avg_congested_cycle 10
