*************************************************
   ChampSim Multicore Out-of-Order Simulator
   Last compiled: Dec 21 2023 20:52:35
*************************************************

trace_0 ./test_trace/462.libquantum-714B.champsimtrace.xz
Initialize SRRIP state
warmup_instructions 100000000
simulation_instructions 100000000
champsim_seed 222

num_cpus 1
cpu_freq 4000
dram_io_freq 2400
page_size 4096
block_size 64
max_read_per_cycle 8
max_fill_per_cycle 1
dram_channels 1
dram_ranks 1
dram_banks 8
dram_rows 65536
dram_columns 128
dram_row_size 8
dram_size 4096
dram_pages 1048576

fetch_width 6
decode_width 6
exec_width 4
lq_width 2
sq_width 2
retire_width 4
scheduler_size 128
branch_mispredict_penalty 20
rob_size 256
lq_size 72
sq_size 56
num_instr_destinations_sparc 4
num_instr_destinations 2
num_instr_sources 4

itlb_set 16
itlb_way 8
itlb_rq_size 16
itlb_wq_size 16
itlb_pq_size 0
itlb_mshr_size 8
itlb_latency 1

dtlb_set 16
dtlb_way 4
dtlb_rq_size 16
dtlb_wq_size 16
dtlb_pq_size 0
dtlb_mshr_size 8
dtlb_latency 1

stlb_set 128
stlb_way 12
stlb_rq_size 32
stlb_wq_size 32
stlb_pq_size 0
stlb_mshr_size 16
stlb_latency 8

l1i_size 32
l1i_set 64
l1i_way 8
l1i_rq_size 64
l1i_wq_size 64
l1i_pq_size 8
l1i_mshr_size 8
l1i_latency 1

l1d_size 32
l1d_set 64
l1d_way 8
l1d_rq_size 64
l1d_wq_size 64
l1d_pq_size 8
l1d_mshr_size 16
l1d_latency 4

l2c_size 512
l2c_set 1024
l2c_way 8
l2c_rq_size 32
l2c_wq_size 32
l2c_pq_size 16
l2c_mshr_size 32
l2c_latency 10

llc_size 2048
llc_set 2048
llc_way 16
llc_rq_size 32
llc_wq_size 32
llc_pq_size 32
llc_mshr_size 64
llc_latency 20

dram_channel_width 8
dram_wq_size 64
dram_rq_size 64
tRP 15
tRCD 15
tCAS 12.5
dram_dbus_turn_around_time 30
dram_write_high_wm 56
dram_write_low_wm 48
min_dram_writes_per_switch 16
dram_mtps 2400
dram_dbus_return_time 13


Heartbeat CPU  0 instructions:    1000000 cycles:     443024 heartbeat IPC: 2.25721 cumulative IPC: 2.25721 (Simulation time: 0 hr 0 min 1 sec) 
Heartbeat CPU  0 instructions:    2000003 cycles:     886209 heartbeat IPC: 2.25640 cumulative IPC: 2.25681 (Simulation time: 0 hr 0 min 2 sec) 
Heartbeat CPU  0 instructions:    3000003 cycles:    1329387 heartbeat IPC: 2.25643 cumulative IPC: 2.25668 (Simulation time: 0 hr 0 min 3 sec) 
Heartbeat CPU  0 instructions:    4000000 cycles:    1772567 heartbeat IPC: 2.25641 cumulative IPC: 2.25661 (Simulation time: 0 hr 0 min 3 sec) 
Heartbeat CPU  0 instructions:    5000000 cycles:    2215750 heartbeat IPC: 2.25640 cumulative IPC: 2.25657 (Simulation time: 0 hr 0 min 4 sec) 
Heartbeat CPU  0 instructions:    6000003 cycles:    2658936 heartbeat IPC: 2.25640 cumulative IPC: 2.25654 (Simulation time: 0 hr 0 min 5 sec) 
Heartbeat CPU  0 instructions:    7000003 cycles:    3102118 heartbeat IPC: 2.25641 cumulative IPC: 2.25652 (Simulation time: 0 hr 0 min 6 sec) 
Heartbeat CPU  0 instructions:    8000000 cycles:    3545298 heartbeat IPC: 2.25641 cumulative IPC: 2.25651 (Simulation time: 0 hr 0 min 6 sec) 
Heartbeat CPU  0 instructions:    9000000 cycles:    4041094 heartbeat IPC: 2.01696 cumulative IPC: 2.22712 (Simulation time: 0 hr 0 min 8 sec) 
Heartbeat CPU  0 instructions:   10000000 cycles:    4552796 heartbeat IPC: 1.95426 cumulative IPC: 2.19645 (Simulation time: 0 hr 0 min 9 sec) 
Heartbeat CPU  0 instructions:   11000003 cycles:    5064518 heartbeat IPC: 1.95419 cumulative IPC: 2.17197 (Simulation time: 0 hr 0 min 10 sec) 
Heartbeat CPU  0 instructions:   12000000 cycles:    5576220 heartbeat IPC: 1.95426 cumulative IPC: 2.15200 (Simulation time: 0 hr 0 min 12 sec) 
Heartbeat CPU  0 instructions:   13000000 cycles:    6087970 heartbeat IPC: 1.95408 cumulative IPC: 2.13536 (Simulation time: 0 hr 0 min 13 sec) 
Heartbeat CPU  0 instructions:   14000000 cycles:    6599672 heartbeat IPC: 1.95426 cumulative IPC: 2.12132 (Simulation time: 0 hr 0 min 14 sec) 
Heartbeat CPU  0 instructions:   15000003 cycles:    7111394 heartbeat IPC: 1.95419 cumulative IPC: 2.10929 (Simulation time: 0 hr 0 min 16 sec) 
Heartbeat CPU  0 instructions:   16000000 cycles:    7623096 heartbeat IPC: 1.95426 cumulative IPC: 2.09888 (Simulation time: 0 hr 0 min 17 sec) 
Heartbeat CPU  0 instructions:   17000000 cycles:    8134847 heartbeat IPC: 1.95408 cumulative IPC: 2.08978 (Simulation time: 0 hr 0 min 19 sec) 
Heartbeat CPU  0 instructions:   18000000 cycles:    8646549 heartbeat IPC: 1.95426 cumulative IPC: 2.08176 (Simulation time: 0 hr 0 min 20 sec) 
Heartbeat CPU  0 instructions:   19000003 cycles:    9158269 heartbeat IPC: 1.95420 cumulative IPC: 2.07463 (Simulation time: 0 hr 0 min 21 sec) 
Heartbeat CPU  0 instructions:   20000000 cycles:    9669971 heartbeat IPC: 1.95426 cumulative IPC: 2.06826 (Simulation time: 0 hr 0 min 23 sec) 
Heartbeat CPU  0 instructions:   21000000 cycles:   10181722 heartbeat IPC: 1.95408 cumulative IPC: 2.06252 (Simulation time: 0 hr 0 min 24 sec) 
Heartbeat CPU  0 instructions:   22000000 cycles:   10693424 heartbeat IPC: 1.95426 cumulative IPC: 2.05734 (Simulation time: 0 hr 0 min 25 sec) 
Heartbeat CPU  0 instructions:   23000000 cycles:   11196562 heartbeat IPC: 1.98753 cumulative IPC: 2.05420 (Simulation time: 0 hr 0 min 27 sec) 
Heartbeat CPU  0 instructions:   24000000 cycles:   11602737 heartbeat IPC: 2.46199 cumulative IPC: 2.06848 (Simulation time: 0 hr 0 min 27 sec) 
Heartbeat CPU  0 instructions:   25000003 cycles:   12008916 heartbeat IPC: 2.46198 cumulative IPC: 2.08179 (Simulation time: 0 hr 0 min 28 sec) 
Heartbeat CPU  0 instructions:   26000000 cycles:   12415103 heartbeat IPC: 2.46191 cumulative IPC: 2.09422 (Simulation time: 0 hr 0 min 29 sec) 
Heartbeat CPU  0 instructions:   27000000 cycles:   12821298 heartbeat IPC: 2.46187 cumulative IPC: 2.10587 (Simulation time: 0 hr 0 min 30 sec) 
Heartbeat CPU  0 instructions:   28000000 cycles:   13227481 heartbeat IPC: 2.46194 cumulative IPC: 2.11681 (Simulation time: 0 hr 0 min 30 sec) 
Heartbeat CPU  0 instructions:   29000001 cycles:   13633644 heartbeat IPC: 2.46207 cumulative IPC: 2.12709 (Simulation time: 0 hr 0 min 31 sec) 
Heartbeat CPU  0 instructions:   30000003 cycles:   14039828 heartbeat IPC: 2.46194 cumulative IPC: 2.13678 (Simulation time: 0 hr 0 min 32 sec) 
Heartbeat CPU  0 instructions:   31000001 cycles:   14446021 heartbeat IPC: 2.46188 cumulative IPC: 2.14592 (Simulation time: 0 hr 0 min 33 sec) 
Heartbeat CPU  0 instructions:   32000000 cycles:   14852217 heartbeat IPC: 2.46186 cumulative IPC: 2.15456 (Simulation time: 0 hr 0 min 33 sec) 
Heartbeat CPU  0 instructions:   33000003 cycles:   15258383 heartbeat IPC: 2.46205 cumulative IPC: 2.16275 (Simulation time: 0 hr 0 min 34 sec) 
Heartbeat CPU  0 instructions:   34000001 cycles:   15664557 heartbeat IPC: 2.46199 cumulative IPC: 2.17051 (Simulation time: 0 hr 0 min 35 sec) 
Heartbeat CPU  0 instructions:   35000003 cycles:   16070740 heartbeat IPC: 2.46195 cumulative IPC: 2.17787 (Simulation time: 0 hr 0 min 36 sec) 
Heartbeat CPU  0 instructions:   36000000 cycles:   16476933 heartbeat IPC: 2.46188 cumulative IPC: 2.18487 (Simulation time: 0 hr 0 min 36 sec) 
Heartbeat CPU  0 instructions:   37000001 cycles:   16883130 heartbeat IPC: 2.46186 cumulative IPC: 2.19154 (Simulation time: 0 hr 0 min 37 sec) 
Heartbeat CPU  0 instructions:   38000003 cycles:   17289319 heartbeat IPC: 2.46191 cumulative IPC: 2.19789 (Simulation time: 0 hr 0 min 38 sec) 
Heartbeat CPU  0 instructions:   39000001 cycles:   17695484 heartbeat IPC: 2.46205 cumulative IPC: 2.20395 (Simulation time: 0 hr 0 min 38 sec) 
Heartbeat CPU  0 instructions:   40000000 cycles:   18101662 heartbeat IPC: 2.46197 cumulative IPC: 2.20974 (Simulation time: 0 hr 0 min 39 sec) 
Heartbeat CPU  0 instructions:   41000002 cycles:   18507875 heartbeat IPC: 2.46177 cumulative IPC: 2.21527 (Simulation time: 0 hr 0 min 40 sec) 
Heartbeat CPU  0 instructions:   42000003 cycles:   18914053 heartbeat IPC: 2.46198 cumulative IPC: 2.22057 (Simulation time: 0 hr 0 min 41 sec) 
Heartbeat CPU  0 instructions:   43000003 cycles:   19320226 heartbeat IPC: 2.46201 cumulative IPC: 2.22565 (Simulation time: 0 hr 0 min 41 sec) 
Heartbeat CPU  0 instructions:   44000000 cycles:   19726396 heartbeat IPC: 2.46202 cumulative IPC: 2.23051 (Simulation time: 0 hr 0 min 42 sec) 
Heartbeat CPU  0 instructions:   45000003 cycles:   20132559 heartbeat IPC: 2.46207 cumulative IPC: 2.23519 (Simulation time: 0 hr 0 min 43 sec) 
Heartbeat CPU  0 instructions:   46000001 cycles:   20538781 heartbeat IPC: 2.46170 cumulative IPC: 2.23967 (Simulation time: 0 hr 0 min 44 sec) 
Heartbeat CPU  0 instructions:   47000000 cycles:   20975489 heartbeat IPC: 2.28986 cumulative IPC: 2.24071 (Simulation time: 0 hr 0 min 44 sec) 
Heartbeat CPU  0 instructions:   48000000 cycles:   21412637 heartbeat IPC: 2.28755 cumulative IPC: 2.24167 (Simulation time: 0 hr 0 min 45 sec) 
Heartbeat CPU  0 instructions:   49000001 cycles:   21849785 heartbeat IPC: 2.28756 cumulative IPC: 2.24258 (Simulation time: 0 hr 0 min 46 sec) 
Heartbeat CPU  0 instructions:   50000001 cycles:   22286929 heartbeat IPC: 2.28758 cumulative IPC: 2.24347 (Simulation time: 0 hr 0 min 47 sec) 
Heartbeat CPU  0 instructions:   51000002 cycles:   22724073 heartbeat IPC: 2.28758 cumulative IPC: 2.24432 (Simulation time: 0 hr 0 min 47 sec) 
Heartbeat CPU  0 instructions:   52000000 cycles:   23161220 heartbeat IPC: 2.28756 cumulative IPC: 2.24513 (Simulation time: 0 hr 0 min 48 sec) 
Heartbeat CPU  0 instructions:   53000001 cycles:   23598365 heartbeat IPC: 2.28757 cumulative IPC: 2.24592 (Simulation time: 0 hr 0 min 49 sec) 
Heartbeat CPU  0 instructions:   54000001 cycles:   24035506 heartbeat IPC: 2.28759 cumulative IPC: 2.24668 (Simulation time: 0 hr 0 min 50 sec) 
Heartbeat CPU  0 instructions:   55000002 cycles:   24472648 heartbeat IPC: 2.28759 cumulative IPC: 2.24741 (Simulation time: 0 hr 0 min 50 sec) 
Heartbeat CPU  0 instructions:   56000000 cycles:   24909796 heartbeat IPC: 2.28755 cumulative IPC: 2.24811 (Simulation time: 0 hr 0 min 51 sec) 
Heartbeat CPU  0 instructions:   57000001 cycles:   25346942 heartbeat IPC: 2.28757 cumulative IPC: 2.24879 (Simulation time: 0 hr 0 min 52 sec) 
Heartbeat CPU  0 instructions:   58000000 cycles:   25784086 heartbeat IPC: 2.28757 cumulative IPC: 2.24945 (Simulation time: 0 hr 0 min 52 sec) 
Heartbeat CPU  0 instructions:   59000000 cycles:   26221235 heartbeat IPC: 2.28755 cumulative IPC: 2.25008 (Simulation time: 0 hr 0 min 53 sec) 
Heartbeat CPU  0 instructions:   60000000 cycles:   26658379 heartbeat IPC: 2.28758 cumulative IPC: 2.25070 (Simulation time: 0 hr 0 min 54 sec) 
Heartbeat CPU  0 instructions:   61000001 cycles:   27095523 heartbeat IPC: 2.28758 cumulative IPC: 2.25129 (Simulation time: 0 hr 0 min 55 sec) 
Heartbeat CPU  0 instructions:   62000002 cycles:   27532666 heartbeat IPC: 2.28758 cumulative IPC: 2.25187 (Simulation time: 0 hr 0 min 55 sec) 
Heartbeat CPU  0 instructions:   63000001 cycles:   27969813 heartbeat IPC: 2.28756 cumulative IPC: 2.25243 (Simulation time: 0 hr 0 min 56 sec) 
Heartbeat CPU  0 instructions:   64000000 cycles:   28406953 heartbeat IPC: 2.28759 cumulative IPC: 2.25297 (Simulation time: 0 hr 0 min 57 sec) 
Heartbeat CPU  0 instructions:   65000001 cycles:   28844098 heartbeat IPC: 2.28757 cumulative IPC: 2.25349 (Simulation time: 0 hr 0 min 58 sec) 
Heartbeat CPU  0 instructions:   66000002 cycles:   29281245 heartbeat IPC: 2.28756 cumulative IPC: 2.25400 (Simulation time: 0 hr 0 min 58 sec) 
Heartbeat CPU  0 instructions:   67000001 cycles:   29718393 heartbeat IPC: 2.28755 cumulative IPC: 2.25450 (Simulation time: 0 hr 0 min 59 sec) 
Heartbeat CPU  0 instructions:   68000000 cycles:   30155536 heartbeat IPC: 2.28758 cumulative IPC: 2.25498 (Simulation time: 0 hr 1 min 0 sec) 
Heartbeat CPU  0 instructions:   69000000 cycles:   30592681 heartbeat IPC: 2.28757 cumulative IPC: 2.25544 (Simulation time: 0 hr 1 min 1 sec) 
Heartbeat CPU  0 instructions:   70000002 cycles:   31096970 heartbeat IPC: 1.98299 cumulative IPC: 2.25102 (Simulation time: 0 hr 1 min 2 sec) 
Heartbeat CPU  0 instructions:   71000001 cycles:   31607573 heartbeat IPC: 1.95847 cumulative IPC: 2.24630 (Simulation time: 0 hr 1 min 3 sec) 
Heartbeat CPU  0 instructions:   72000000 cycles:   32118159 heartbeat IPC: 1.95853 cumulative IPC: 2.24172 (Simulation time: 0 hr 1 min 5 sec) 
Heartbeat CPU  0 instructions:   73000002 cycles:   32628794 heartbeat IPC: 1.95835 cumulative IPC: 2.23729 (Simulation time: 0 hr 1 min 6 sec) 
Heartbeat CPU  0 instructions:   74000002 cycles:   33139380 heartbeat IPC: 1.95853 cumulative IPC: 2.23299 (Simulation time: 0 hr 1 min 7 sec) 
Heartbeat CPU  0 instructions:   75000001 cycles:   33649985 heartbeat IPC: 1.95846 cumulative IPC: 2.22883 (Simulation time: 0 hr 1 min 9 sec) 
Heartbeat CPU  0 instructions:   76000000 cycles:   34160571 heartbeat IPC: 1.95853 cumulative IPC: 2.22479 (Simulation time: 0 hr 1 min 10 sec) 
Heartbeat CPU  0 instructions:   77000001 cycles:   34671204 heartbeat IPC: 1.95836 cumulative IPC: 2.22086 (Simulation time: 0 hr 1 min 11 sec) 
Heartbeat CPU  0 instructions:   78000001 cycles:   35181790 heartbeat IPC: 1.95853 cumulative IPC: 2.21706 (Simulation time: 0 hr 1 min 13 sec) 
Heartbeat CPU  0 instructions:   79000000 cycles:   35692397 heartbeat IPC: 1.95845 cumulative IPC: 2.21336 (Simulation time: 0 hr 1 min 14 sec) 
Heartbeat CPU  0 instructions:   80000000 cycles:   36202983 heartbeat IPC: 1.95853 cumulative IPC: 2.20976 (Simulation time: 0 hr 1 min 15 sec) 
Heartbeat CPU  0 instructions:   81000002 cycles:   36713617 heartbeat IPC: 1.95835 cumulative IPC: 2.20627 (Simulation time: 0 hr 1 min 17 sec) 
Heartbeat CPU  0 instructions:   82000002 cycles:   37224203 heartbeat IPC: 1.95853 cumulative IPC: 2.20287 (Simulation time: 0 hr 1 min 18 sec) 
Heartbeat CPU  0 instructions:   83000001 cycles:   37734807 heartbeat IPC: 1.95846 cumulative IPC: 2.19956 (Simulation time: 0 hr 1 min 19 sec) 
Heartbeat CPU  0 instructions:   84000000 cycles:   38221108 heartbeat IPC: 2.05634 cumulative IPC: 2.19774 (Simulation time: 0 hr 1 min 21 sec) 
Heartbeat CPU  0 instructions:   85000003 cycles:   38627355 heartbeat IPC: 2.46156 cumulative IPC: 2.20051 (Simulation time: 0 hr 1 min 21 sec) 
Heartbeat CPU  0 instructions:   86000001 cycles:   39033587 heartbeat IPC: 2.46164 cumulative IPC: 2.20323 (Simulation time: 0 hr 1 min 22 sec) 
Heartbeat CPU  0 instructions:   87000003 cycles:   39439827 heartbeat IPC: 2.46160 cumulative IPC: 2.20589 (Simulation time: 0 hr 1 min 23 sec) 
Heartbeat CPU  0 instructions:   88000000 cycles:   39846096 heartbeat IPC: 2.46142 cumulative IPC: 2.20850 (Simulation time: 0 hr 1 min 23 sec) 
Heartbeat CPU  0 instructions:   89000001 cycles:   40252338 heartbeat IPC: 2.46159 cumulative IPC: 2.21105 (Simulation time: 0 hr 1 min 24 sec) 
Heartbeat CPU  0 instructions:   90000003 cycles:   40658573 heartbeat IPC: 2.46163 cumulative IPC: 2.21356 (Simulation time: 0 hr 1 min 25 sec) 
Heartbeat CPU  0 instructions:   91000001 cycles:   41064803 heartbeat IPC: 2.46165 cumulative IPC: 2.21601 (Simulation time: 0 hr 1 min 26 sec) 
Heartbeat CPU  0 instructions:   92000000 cycles:   41471025 heartbeat IPC: 2.46171 cumulative IPC: 2.21842 (Simulation time: 0 hr 1 min 26 sec) 
Heartbeat CPU  0 instructions:   93000003 cycles:   41877305 heartbeat IPC: 2.46136 cumulative IPC: 2.22077 (Simulation time: 0 hr 1 min 27 sec) 
Heartbeat CPU  0 instructions:   94000001 cycles:   42283550 heartbeat IPC: 2.46156 cumulative IPC: 2.22309 (Simulation time: 0 hr 1 min 28 sec) 
Heartbeat CPU  0 instructions:   95000003 cycles:   42689779 heartbeat IPC: 2.46167 cumulative IPC: 2.22536 (Simulation time: 0 hr 1 min 29 sec) 
Heartbeat CPU  0 instructions:   96000000 cycles:   43096016 heartbeat IPC: 2.46161 cumulative IPC: 2.22758 (Simulation time: 0 hr 1 min 29 sec) 
Heartbeat CPU  0 instructions:   97000000 cycles:   43502296 heartbeat IPC: 2.46136 cumulative IPC: 2.22977 (Simulation time: 0 hr 1 min 30 sec) 
Heartbeat CPU  0 instructions:   98000003 cycles:   43908547 heartbeat IPC: 2.46154 cumulative IPC: 2.23191 (Simulation time: 0 hr 1 min 31 sec) 
Heartbeat CPU  0 instructions:   99000003 cycles:   44314772 heartbeat IPC: 2.46169 cumulative IPC: 2.23402 (Simulation time: 0 hr 1 min 31 sec) 
Heartbeat CPU  0 instructions:  100000000 cycles:   44720993 heartbeat IPC: 2.46171 cumulative IPC: 2.23609 (Simulation time: 0 hr 1 min 32 sec) 

Warmup complete CPU  0 instructions:  100000001 cycles:   44720995 (Simulation time: 0 hr 1 min 32 sec) 

Heartbeat CPU  0 instructions:  101000003 cycles:   46333669 heartbeat IPC: 0.62009 cumulative IPC: 0.62009 (Simulation time: 0 hr 1 min 34 sec) 
Heartbeat CPU  0 instructions:  102000003 cycles:   47958342 heartbeat IPC: 0.61551 cumulative IPC: 0.61779 (Simulation time: 0 hr 1 min 35 sec) 
Heartbeat CPU  0 instructions:  103000001 cycles:   49574131 heartbeat IPC: 0.61889 cumulative IPC: 0.61816 (Simulation time: 0 hr 1 min 37 sec) 
Heartbeat CPU  0 instructions:  104000000 cycles:   51188616 heartbeat IPC: 0.61939 cumulative IPC: 0.61847 (Simulation time: 0 hr 1 min 38 sec) 
Heartbeat CPU  0 instructions:  105000000 cycles:   52806050 heartbeat IPC: 0.61826 cumulative IPC: 0.61842 (Simulation time: 0 hr 1 min 40 sec) 
Heartbeat CPU  0 instructions:  106000002 cycles:   54420526 heartbeat IPC: 0.61940 cumulative IPC: 0.61859 (Simulation time: 0 hr 1 min 41 sec) 
Heartbeat CPU  0 instructions:  107000000 cycles:   56050761 heartbeat IPC: 0.61341 cumulative IPC: 0.61784 (Simulation time: 0 hr 1 min 43 sec) 
Heartbeat CPU  0 instructions:  108000000 cycles:   57707815 heartbeat IPC: 0.60348 cumulative IPC: 0.61601 (Simulation time: 0 hr 1 min 44 sec) 
Heartbeat CPU  0 instructions:  109000000 cycles:   59430659 heartbeat IPC: 0.58044 cumulative IPC: 0.61184 (Simulation time: 0 hr 1 min 46 sec) 
Heartbeat CPU  0 instructions:  110000001 cycles:   61136018 heartbeat IPC: 0.58639 cumulative IPC: 0.60920 (Simulation time: 0 hr 1 min 47 sec) 
Heartbeat CPU  0 instructions:  111000001 cycles:   62890273 heartbeat IPC: 0.57004 cumulative IPC: 0.60542 (Simulation time: 0 hr 1 min 49 sec) 
Heartbeat CPU  0 instructions:  112000000 cycles:   64619909 heartbeat IPC: 0.57816 cumulative IPC: 0.60305 (Simulation time: 0 hr 1 min 51 sec) 
Heartbeat CPU  0 instructions:  113000002 cycles:   66353663 heartbeat IPC: 0.57678 cumulative IPC: 0.60094 (Simulation time: 0 hr 1 min 52 sec) 
Heartbeat CPU  0 instructions:  114000002 cycles:   68099627 heartbeat IPC: 0.57275 cumulative IPC: 0.59884 (Simulation time: 0 hr 1 min 54 sec) 
Heartbeat CPU  0 instructions:  115000003 cycles:   69801317 heartbeat IPC: 0.58765 cumulative IPC: 0.59808 (Simulation time: 0 hr 1 min 55 sec) 
Heartbeat CPU  0 instructions:  116000000 cycles:   71550116 heartbeat IPC: 0.57182 cumulative IPC: 0.59637 (Simulation time: 0 hr 1 min 57 sec) 
Heartbeat CPU  0 instructions:  117000000 cycles:   73291429 heartbeat IPC: 0.57428 cumulative IPC: 0.59502 (Simulation time: 0 hr 1 min 58 sec) 
Heartbeat CPU  0 instructions:  118000000 cycles:   75006791 heartbeat IPC: 0.58297 cumulative IPC: 0.59434 (Simulation time: 0 hr 2 min 0 sec) 
Heartbeat CPU  0 instructions:  119000001 cycles:   76758831 heartbeat IPC: 0.57076 cumulative IPC: 0.59305 (Simulation time: 0 hr 2 min 1 sec) 
Heartbeat CPU  0 instructions:  120000000 cycles:   78476872 heartbeat IPC: 0.58206 cumulative IPC: 0.59249 (Simulation time: 0 hr 2 min 3 sec) 
Heartbeat CPU  0 instructions:  121000000 cycles:   80212766 heartbeat IPC: 0.57607 cumulative IPC: 0.59169 (Simulation time: 0 hr 2 min 4 sec) 
Heartbeat CPU  0 instructions:  122000002 cycles:   81959723 heartbeat IPC: 0.57243 cumulative IPC: 0.59078 (Simulation time: 0 hr 2 min 6 sec) 
Heartbeat CPU  0 instructions:  123000002 cycles:   83668493 heartbeat IPC: 0.58522 cumulative IPC: 0.59054 (Simulation time: 0 hr 2 min 7 sec) 
Heartbeat CPU  0 instructions:  124000000 cycles:   85417419 heartbeat IPC: 0.57178 cumulative IPC: 0.58973 (Simulation time: 0 hr 2 min 9 sec) 
Heartbeat CPU  0 instructions:  125000003 cycles:   87148866 heartbeat IPC: 0.57755 cumulative IPC: 0.58924 (Simulation time: 0 hr 2 min 10 sec) 
Heartbeat CPU  0 instructions:  126000000 cycles:   88869556 heartbeat IPC: 0.58116 cumulative IPC: 0.58892 (Simulation time: 0 hr 2 min 12 sec) 
Heartbeat CPU  0 instructions:  127000000 cycles:   90614530 heartbeat IPC: 0.57307 cumulative IPC: 0.58832 (Simulation time: 0 hr 2 min 13 sec) 
Heartbeat CPU  0 instructions:  128000000 cycles:   92327374 heartbeat IPC: 0.58382 cumulative IPC: 0.58816 (Simulation time: 0 hr 2 min 15 sec) 
Heartbeat CPU  0 instructions:  129000001 cycles:   94067029 heartbeat IPC: 0.57483 cumulative IPC: 0.58769 (Simulation time: 0 hr 2 min 16 sec) 
Heartbeat CPU  0 instructions:  130000001 cycles:   95797701 heartbeat IPC: 0.57781 cumulative IPC: 0.58735 (Simulation time: 0 hr 2 min 18 sec) 
Heartbeat CPU  0 instructions:  131000000 cycles:   97890968 heartbeat IPC: 0.47772 cumulative IPC: 0.58304 (Simulation time: 0 hr 2 min 20 sec) 
Heartbeat CPU  0 instructions:  132000000 cycles:  100826827 heartbeat IPC: 0.34062 cumulative IPC: 0.57035 (Simulation time: 0 hr 2 min 22 sec) 
Heartbeat CPU  0 instructions:  133000000 cycles:  103756805 heartbeat IPC: 0.34130 cumulative IPC: 0.55898 (Simulation time: 0 hr 2 min 25 sec) 
Heartbeat CPU  0 instructions:  134000000 cycles:  106695273 heartbeat IPC: 0.34031 cumulative IPC: 0.54861 (Simulation time: 0 hr 2 min 27 sec) 
Heartbeat CPU  0 instructions:  135000000 cycles:  109632300 heartbeat IPC: 0.34048 cumulative IPC: 0.53920 (Simulation time: 0 hr 2 min 29 sec) 
Heartbeat CPU  0 instructions:  136000000 cycles:  112561320 heartbeat IPC: 0.34141 cumulative IPC: 0.53066 (Simulation time: 0 hr 2 min 32 sec) 
Heartbeat CPU  0 instructions:  137000000 cycles:  115507123 heartbeat IPC: 0.33947 cumulative IPC: 0.52270 (Simulation time: 0 hr 2 min 34 sec) 
Heartbeat CPU  0 instructions:  138000000 cycles:  118447265 heartbeat IPC: 0.34012 cumulative IPC: 0.51542 (Simulation time: 0 hr 2 min 36 sec) 
Heartbeat CPU  0 instructions:  139000000 cycles:  121384964 heartbeat IPC: 0.34040 cumulative IPC: 0.50871 (Simulation time: 0 hr 2 min 39 sec) 
Heartbeat CPU  0 instructions:  140000000 cycles:  124328046 heartbeat IPC: 0.33978 cumulative IPC: 0.50247 (Simulation time: 0 hr 2 min 41 sec) 
Heartbeat CPU  0 instructions:  141000000 cycles:  127268699 heartbeat IPC: 0.34006 cumulative IPC: 0.49668 (Simulation time: 0 hr 2 min 44 sec) 
Heartbeat CPU  0 instructions:  142000000 cycles:  130208919 heartbeat IPC: 0.34011 cumulative IPC: 0.49130 (Simulation time: 0 hr 2 min 46 sec) 
Heartbeat CPU  0 instructions:  143000000 cycles:  133147697 heartbeat IPC: 0.34028 cumulative IPC: 0.48628 (Simulation time: 0 hr 2 min 48 sec) 
Heartbeat CPU  0 instructions:  144000000 cycles:  136084196 heartbeat IPC: 0.34054 cumulative IPC: 0.48159 (Simulation time: 0 hr 2 min 51 sec) 
Heartbeat CPU  0 instructions:  145000002 cycles:  138922141 heartbeat IPC: 0.35237 cumulative IPC: 0.47770 (Simulation time: 0 hr 2 min 53 sec) 
Heartbeat CPU  0 instructions:  146000000 cycles:  141341606 heartbeat IPC: 0.41331 cumulative IPC: 0.47609 (Simulation time: 0 hr 2 min 55 sec) 
Heartbeat CPU  0 instructions:  147000000 cycles:  143277027 heartbeat IPC: 0.51668 cumulative IPC: 0.47689 (Simulation time: 0 hr 2 min 57 sec) 
Heartbeat CPU  0 instructions:  148000000 cycles:  145350524 heartbeat IPC: 0.48228 cumulative IPC: 0.47700 (Simulation time: 0 hr 2 min 58 sec) 
Heartbeat CPU  0 instructions:  149000000 cycles:  147245176 heartbeat IPC: 0.52780 cumulative IPC: 0.47794 (Simulation time: 0 hr 3 min 0 sec) 
Heartbeat CPU  0 instructions:  150000001 cycles:  148926446 heartbeat IPC: 0.59479 cumulative IPC: 0.47982 (Simulation time: 0 hr 3 min 1 sec) 
Heartbeat CPU  0 instructions:  151000000 cycles:  150540312 heartbeat IPC: 0.61963 cumulative IPC: 0.48195 (Simulation time: 0 hr 3 min 3 sec) 
Heartbeat CPU  0 instructions:  152000000 cycles:  152156663 heartbeat IPC: 0.61868 cumulative IPC: 0.48401 (Simulation time: 0 hr 3 min 5 sec) 
Heartbeat CPU  0 instructions:  153000001 cycles:  153775884 heartbeat IPC: 0.61758 cumulative IPC: 0.48599 (Simulation time: 0 hr 3 min 6 sec) 
Heartbeat CPU  0 instructions:  154000003 cycles:  155389554 heartbeat IPC: 0.61971 cumulative IPC: 0.48794 (Simulation time: 0 hr 3 min 8 sec) 
Heartbeat CPU  0 instructions:  155000001 cycles:  157013734 heartbeat IPC: 0.61569 cumulative IPC: 0.48979 (Simulation time: 0 hr 3 min 9 sec) 
Heartbeat CPU  0 instructions:  156000000 cycles:  158633251 heartbeat IPC: 0.61747 cumulative IPC: 0.49161 (Simulation time: 0 hr 3 min 11 sec) 
Heartbeat CPU  0 instructions:  157000002 cycles:  160248743 heartbeat IPC: 0.61901 cumulative IPC: 0.49339 (Simulation time: 0 hr 3 min 12 sec) 
Heartbeat CPU  0 instructions:  158000000 cycles:  161869827 heartbeat IPC: 0.61687 cumulative IPC: 0.49510 (Simulation time: 0 hr 3 min 14 sec) 
Heartbeat CPU  0 instructions:  159000002 cycles:  163483473 heartbeat IPC: 0.61972 cumulative IPC: 0.49679 (Simulation time: 0 hr 3 min 15 sec) 
Heartbeat CPU  0 instructions:  160000000 cycles:  165099067 heartbeat IPC: 0.61897 cumulative IPC: 0.49843 (Simulation time: 0 hr 3 min 17 sec) 
Heartbeat CPU  0 instructions:  161000000 cycles:  166719288 heartbeat IPC: 0.61720 cumulative IPC: 0.50001 (Simulation time: 0 hr 3 min 18 sec) 
Heartbeat CPU  0 instructions:  162000002 cycles:  168330478 heartbeat IPC: 0.62066 cumulative IPC: 0.50158 (Simulation time: 0 hr 3 min 20 sec) 
Heartbeat CPU  0 instructions:  163000000 cycles:  169949971 heartbeat IPC: 0.61748 cumulative IPC: 0.50308 (Simulation time: 0 hr 3 min 21 sec) 
Heartbeat CPU  0 instructions:  164000000 cycles:  171568360 heartbeat IPC: 0.61790 cumulative IPC: 0.50454 (Simulation time: 0 hr 3 min 23 sec) 
Heartbeat CPU  0 instructions:  165000001 cycles:  173184085 heartbeat IPC: 0.61892 cumulative IPC: 0.50598 (Simulation time: 0 hr 3 min 24 sec) 
Heartbeat CPU  0 instructions:  166000003 cycles:  174806321 heartbeat IPC: 0.61643 cumulative IPC: 0.50736 (Simulation time: 0 hr 3 min 26 sec) 
Heartbeat CPU  0 instructions:  167000001 cycles:  176419670 heartbeat IPC: 0.61983 cumulative IPC: 0.50874 (Simulation time: 0 hr 3 min 27 sec) 
Heartbeat CPU  0 instructions:  168000000 cycles:  178067902 heartbeat IPC: 0.60671 cumulative IPC: 0.50995 (Simulation time: 0 hr 3 min 29 sec) 
Heartbeat CPU  0 instructions:  169000000 cycles:  179763472 heartbeat IPC: 0.58977 cumulative IPC: 0.51095 (Simulation time: 0 hr 3 min 30 sec) 
Heartbeat CPU  0 instructions:  170000003 cycles:  181564937 heartbeat IPC: 0.55511 cumulative IPC: 0.51153 (Simulation time: 0 hr 3 min 32 sec) 
Heartbeat CPU  0 instructions:  171000001 cycles:  183367556 heartbeat IPC: 0.55475 cumulative IPC: 0.51209 (Simulation time: 0 hr 3 min 34 sec) 
Heartbeat CPU  0 instructions:  172000000 cycles:  185200527 heartbeat IPC: 0.54556 cumulative IPC: 0.51253 (Simulation time: 0 hr 3 min 35 sec) 
Heartbeat CPU  0 instructions:  173000001 cycles:  187015355 heartbeat IPC: 0.55102 cumulative IPC: 0.51302 (Simulation time: 0 hr 3 min 37 sec) 
Heartbeat CPU  0 instructions:  174000000 cycles:  188827979 heartbeat IPC: 0.55169 cumulative IPC: 0.51351 (Simulation time: 0 hr 3 min 39 sec) 
Heartbeat CPU  0 instructions:  175000002 cycles:  190652174 heartbeat IPC: 0.54819 cumulative IPC: 0.51394 (Simulation time: 0 hr 3 min 40 sec) 
Heartbeat CPU  0 instructions:  176000000 cycles:  192451149 heartbeat IPC: 0.55587 cumulative IPC: 0.51445 (Simulation time: 0 hr 3 min 42 sec) 
Heartbeat CPU  0 instructions:  177000002 cycles:  194284123 heartbeat IPC: 0.54556 cumulative IPC: 0.51483 (Simulation time: 0 hr 3 min 43 sec) 
Heartbeat CPU  0 instructions:  178000000 cycles:  196106557 heartbeat IPC: 0.54872 cumulative IPC: 0.51524 (Simulation time: 0 hr 3 min 45 sec) 
Heartbeat CPU  0 instructions:  179000003 cycles:  197913378 heartbeat IPC: 0.55346 cumulative IPC: 0.51569 (Simulation time: 0 hr 3 min 47 sec) 
Heartbeat CPU  0 instructions:  180000000 cycles:  199746036 heartbeat IPC: 0.54565 cumulative IPC: 0.51605 (Simulation time: 0 hr 3 min 48 sec) 
Heartbeat CPU  0 instructions:  181000000 cycles:  201556657 heartbeat IPC: 0.55230 cumulative IPC: 0.51646 (Simulation time: 0 hr 3 min 50 sec) 
Heartbeat CPU  0 instructions:  182000001 cycles:  203378010 heartbeat IPC: 0.54904 cumulative IPC: 0.51684 (Simulation time: 0 hr 3 min 51 sec) 
Heartbeat CPU  0 instructions:  183000000 cycles:  205201494 heartbeat IPC: 0.54840 cumulative IPC: 0.51720 (Simulation time: 0 hr 3 min 53 sec) 
Heartbeat CPU  0 instructions:  184000000 cycles:  207009700 heartbeat IPC: 0.55303 cumulative IPC: 0.51760 (Simulation time: 0 hr 3 min 55 sec) 
Heartbeat CPU  0 instructions:  185000001 cycles:  208843871 heartbeat IPC: 0.54521 cumulative IPC: 0.51790 (Simulation time: 0 hr 3 min 56 sec) 
Heartbeat CPU  0 instructions:  186000002 cycles:  210663315 heartbeat IPC: 0.54962 cumulative IPC: 0.51825 (Simulation time: 0 hr 3 min 58 sec) 
Heartbeat CPU  0 instructions:  187000000 cycles:  212467728 heartbeat IPC: 0.55420 cumulative IPC: 0.51864 (Simulation time: 0 hr 4 min 0 sec) 
Heartbeat CPU  0 instructions:  188000000 cycles:  214300438 heartbeat IPC: 0.54564 cumulative IPC: 0.51893 (Simulation time: 0 hr 4 min 1 sec) 
Heartbeat CPU  0 instructions:  189000001 cycles:  216106885 heartbeat IPC: 0.55357 cumulative IPC: 0.51930 (Simulation time: 0 hr 4 min 3 sec) 
Heartbeat CPU  0 instructions:  190000000 cycles:  217931343 heartbeat IPC: 0.54811 cumulative IPC: 0.51960 (Simulation time: 0 hr 4 min 4 sec) 
Heartbeat CPU  0 instructions:  191000000 cycles:  219769196 heartbeat IPC: 0.54411 cumulative IPC: 0.51986 (Simulation time: 0 hr 4 min 6 sec) 
Heartbeat CPU  0 instructions:  192000000 cycles:  221925743 heartbeat IPC: 0.46370 cumulative IPC: 0.51917 (Simulation time: 0 hr 4 min 8 sec) 
Heartbeat CPU  0 instructions:  193000000 cycles:  224827904 heartbeat IPC: 0.34457 cumulative IPC: 0.51636 (Simulation time: 0 hr 4 min 10 sec) 
Heartbeat CPU  0 instructions:  194000000 cycles:  227747666 heartbeat IPC: 0.34249 cumulative IPC: 0.51359 (Simulation time: 0 hr 4 min 13 sec) 
Heartbeat CPU  0 instructions:  195000000 cycles:  230661381 heartbeat IPC: 0.34320 cumulative IPC: 0.51092 (Simulation time: 0 hr 4 min 15 sec) 
Heartbeat CPU  0 instructions:  196000000 cycles:  233574540 heartbeat IPC: 0.34327 cumulative IPC: 0.50833 (Simulation time: 0 hr 4 min 17 sec) 
Heartbeat CPU  0 instructions:  197000000 cycles:  236485390 heartbeat IPC: 0.34354 cumulative IPC: 0.50583 (Simulation time: 0 hr 4 min 20 sec) 
Heartbeat CPU  0 instructions:  198000000 cycles:  239402695 heartbeat IPC: 0.34278 cumulative IPC: 0.50339 (Simulation time: 0 hr 4 min 22 sec) 
Heartbeat CPU  0 instructions:  199000000 cycles:  242318194 heartbeat IPC: 0.34299 cumulative IPC: 0.50102 (Simulation time: 0 hr 4 min 25 sec) 
Heartbeat CPU  0 instructions:  200000000 cycles:  245228989 heartbeat IPC: 0.34355 cumulative IPC: 0.49873 (Simulation time: 0 hr 4 min 27 sec) 
Finished CPU 0 instructions: 100000000 cycles: 200508007 cumulative IPC: 0.49873 (Simulation time: 0 hr 4 min 27 sec) 

ChampSim completed all CPUs

[ROI Statistics]
Core_0_instructions 100000000
Core_0_cycles 200508007
Core_0_IPC 0.49873

Core_0_branch_prediction_accuracy 99.58952
Core_0_branch_MPKI 0.70683
Core_0_average_ROB_occupancy_at_mispredict 218.77009

Core_0_L1D_total_access 12830205
Core_0_L1D_total_hit 10253982
Core_0_L1D_total_miss 2576223
Core_0_L1D_loads 9337230
Core_0_L1D_load_hit 6761027
Core_0_L1D_load_miss 2576203
Core_0_L1D_RFOs 3492975
Core_0_L1D_RFO_hit 3492955
Core_0_L1D_RFO_miss 20
Core_0_L1D_prefetches 0
Core_0_L1D_prefetch_hit 0
Core_0_L1D_prefetch_miss 0
Core_0_L1D_writebacks 0
Core_0_L1D_writeback_hit 0
Core_0_L1D_writeback_miss 0
Core_0_L1D_prefetch_requested 0
Core_0_L1D_prefetch_issued 0
Core_0_L1D_prefetch_useful 0
Core_0_L1D_prefetch_useless 0
Core_0_L1D_prefetch_late 0
Core_0_L1D_average_miss_latency 183.79549

Core_0_L1I_total_access 32995529
Core_0_L1I_total_hit 32995528
Core_0_L1I_total_miss 1
Core_0_L1I_loads 32995529
Core_0_L1I_load_hit 32995528
Core_0_L1I_load_miss 1
Core_0_L1I_RFOs 0
Core_0_L1I_RFO_hit 0
Core_0_L1I_RFO_miss 0
Core_0_L1I_prefetches 0
Core_0_L1I_prefetch_hit 0
Core_0_L1I_prefetch_miss 0
Core_0_L1I_writebacks 0
Core_0_L1I_writeback_hit 0
Core_0_L1I_writeback_miss 0
Core_0_L1I_prefetch_requested 0
Core_0_L1I_prefetch_issued 0
Core_0_L1I_prefetch_useful 0
Core_0_L1I_prefetch_useless 0
Core_0_L1I_prefetch_late 0
Core_0_L1I_average_miss_latency 231.00000

Core_0_L2C_total_access 3526369
Core_0_L2C_total_hit 950145
Core_0_L2C_total_miss 2576224
Core_0_L2C_loads 2576204
Core_0_L2C_load_hit 0
Core_0_L2C_load_miss 2576204
Core_0_L2C_RFOs 20
Core_0_L2C_RFO_hit 0
Core_0_L2C_RFO_miss 20
Core_0_L2C_prefetches 0
Core_0_L2C_prefetch_hit 0
Core_0_L2C_prefetch_miss 0
Core_0_L2C_writebacks 950145
Core_0_L2C_writeback_hit 950145
Core_0_L2C_writeback_miss 0
Core_0_L2C_prefetch_requested 0
Core_0_L2C_prefetch_issued 0
Core_0_L2C_prefetch_useful 0
Core_0_L2C_prefetch_useless 0
Core_0_L2C_prefetch_late 0
Core_0_L2C_average_miss_latency 169.68559

Core_0_LLC_total_access 3518927
Core_0_LLC_total_hit 650421
Core_0_LLC_total_miss 2868506
Core_0_LLC_loads 2576204
Core_0_LLC_load_hit 0
Core_0_LLC_load_miss 2576204
Core_0_LLC_RFOs 20
Core_0_LLC_RFO_hit 0
Core_0_LLC_RFO_miss 20
Core_0_LLC_prefetches 0
Core_0_LLC_prefetch_hit 0
Core_0_LLC_prefetch_miss 0
Core_0_LLC_writebacks 942703
Core_0_LLC_writeback_hit 650421
Core_0_LLC_writeback_miss 292282
Core_0_LLC_prefetch_requested 0
Core_0_LLC_prefetch_issued 0
Core_0_LLC_prefetch_useful 0
Core_0_LLC_prefetch_useless 0
Core_0_LLC_prefetch_late 0
Core_0_LLC_average_miss_latency 125.38843

Core_0_major_page_fault 0
Core_0_minor_page_fault 8199

Channel_0_RQ_row_buffer_hit 1571022
Channel_0_RQ_row_buffer_miss 1005202
Channel_0_WQ_row_buffer_hit 593383
Channel_0_WQ_row_buffer_miss 324774
Channel_0_WQ_full 0
Channel_0_dbus_congested 1567681

avg_congested_cycle 9
