*************************************************
   ChampSim Multicore Out-of-Order Simulator
   Last compiled: Dec 21 2023 18:41:44
*************************************************

trace_0 ./test_trace/462.libquantum-714B.champsimtrace.xz
CPU 0 L1D next line prefetcher
Initialize SHIP state
LLC Next Line Prefetcher
warmup_instructions 100000000
simulation_instructions 100000000
champsim_seed 222

num_cpus 1
cpu_freq 4000
dram_io_freq 2400
page_size 4096
block_size 64
max_read_per_cycle 8
max_fill_per_cycle 1
dram_channels 1
dram_ranks 1
dram_banks 8
dram_rows 65536
dram_columns 128
dram_row_size 8
dram_size 4096
dram_pages 1048576

fetch_width 6
decode_width 6
exec_width 4
lq_width 2
sq_width 2
retire_width 4
scheduler_size 128
branch_mispredict_penalty 20
rob_size 256
lq_size 72
sq_size 56
num_instr_destinations_sparc 4
num_instr_destinations 2
num_instr_sources 4

itlb_set 16
itlb_way 8
itlb_rq_size 16
itlb_wq_size 16
itlb_pq_size 0
itlb_mshr_size 8
itlb_latency 1

dtlb_set 16
dtlb_way 4
dtlb_rq_size 16
dtlb_wq_size 16
dtlb_pq_size 0
dtlb_mshr_size 8
dtlb_latency 1

stlb_set 128
stlb_way 12
stlb_rq_size 32
stlb_wq_size 32
stlb_pq_size 0
stlb_mshr_size 16
stlb_latency 8

l1i_size 32
l1i_set 64
l1i_way 8
l1i_rq_size 64
l1i_wq_size 64
l1i_pq_size 8
l1i_mshr_size 8
l1i_latency 1

l1d_size 32
l1d_set 64
l1d_way 8
l1d_rq_size 64
l1d_wq_size 64
l1d_pq_size 8
l1d_mshr_size 16
l1d_latency 4

l2c_size 512
l2c_set 1024
l2c_way 8
l2c_rq_size 32
l2c_wq_size 32
l2c_pq_size 16
l2c_mshr_size 32
l2c_latency 10

llc_size 2048
llc_set 2048
llc_way 16
llc_rq_size 32
llc_wq_size 32
llc_pq_size 32
llc_mshr_size 64
llc_latency 20

dram_channel_width 8
dram_wq_size 64
dram_rq_size 64
tRP 15
tRCD 15
tCAS 12.5
dram_dbus_turn_around_time 30
dram_write_high_wm 56
dram_write_low_wm 48
min_dram_writes_per_switch 16
dram_mtps 2400
dram_dbus_return_time 13


Heartbeat CPU  0 instructions:    1000000 cycles:     581510 heartbeat IPC: 1.71966 cumulative IPC: 1.71966 (Simulation time: 0 hr 0 min 0 sec) 
Heartbeat CPU  0 instructions:    2000003 cycles:    1163543 heartbeat IPC: 1.71812 cumulative IPC: 1.71889 (Simulation time: 0 hr 0 min 1 sec) 
Heartbeat CPU  0 instructions:    3000002 cycles:    1745575 heartbeat IPC: 1.71812 cumulative IPC: 1.71863 (Simulation time: 0 hr 0 min 2 sec) 
Heartbeat CPU  0 instructions:    4000000 cycles:    2327604 heartbeat IPC: 1.71812 cumulative IPC: 1.71851 (Simulation time: 0 hr 0 min 3 sec) 
Heartbeat CPU  0 instructions:    5000000 cycles:    2909636 heartbeat IPC: 1.71812 cumulative IPC: 1.71843 (Simulation time: 0 hr 0 min 4 sec) 
Heartbeat CPU  0 instructions:    6000000 cycles:    3491670 heartbeat IPC: 1.71811 cumulative IPC: 1.71838 (Simulation time: 0 hr 0 min 5 sec) 
Heartbeat CPU  0 instructions:    7000000 cycles:    4073701 heartbeat IPC: 1.71812 cumulative IPC: 1.71834 (Simulation time: 0 hr 0 min 5 sec) 
Heartbeat CPU  0 instructions:    8000000 cycles:    4655734 heartbeat IPC: 1.71812 cumulative IPC: 1.71831 (Simulation time: 0 hr 0 min 6 sec) 
Heartbeat CPU  0 instructions:    9000002 cycles:    5191608 heartbeat IPC: 1.86611 cumulative IPC: 1.73357 (Simulation time: 0 hr 0 min 7 sec) 
Heartbeat CPU  0 instructions:   10000002 cycles:    5712796 heartbeat IPC: 1.91869 cumulative IPC: 1.75046 (Simulation time: 0 hr 0 min 9 sec) 
Heartbeat CPU  0 instructions:   11000001 cycles:    6234007 heartbeat IPC: 1.91861 cumulative IPC: 1.76452 (Simulation time: 0 hr 0 min 10 sec) 
Heartbeat CPU  0 instructions:   12000000 cycles:    6755195 heartbeat IPC: 1.91869 cumulative IPC: 1.77641 (Simulation time: 0 hr 0 min 12 sec) 
Heartbeat CPU  0 instructions:   13000001 cycles:    7276430 heartbeat IPC: 1.91852 cumulative IPC: 1.78659 (Simulation time: 0 hr 0 min 13 sec) 
Heartbeat CPU  0 instructions:   14000001 cycles:    7797618 heartbeat IPC: 1.91869 cumulative IPC: 1.79542 (Simulation time: 0 hr 0 min 14 sec) 
Heartbeat CPU  0 instructions:   15000000 cycles:    8318829 heartbeat IPC: 1.91861 cumulative IPC: 1.80314 (Simulation time: 0 hr 0 min 16 sec) 
Heartbeat CPU  0 instructions:   16000000 cycles:    8840017 heartbeat IPC: 1.91869 cumulative IPC: 1.80995 (Simulation time: 0 hr 0 min 17 sec) 
Heartbeat CPU  0 instructions:   17000000 cycles:    9361252 heartbeat IPC: 1.91852 cumulative IPC: 1.81600 (Simulation time: 0 hr 0 min 18 sec) 
Heartbeat CPU  0 instructions:   18000000 cycles:    9882440 heartbeat IPC: 1.91869 cumulative IPC: 1.82141 (Simulation time: 0 hr 0 min 20 sec) 
Heartbeat CPU  0 instructions:   19000003 cycles:   10403649 heartbeat IPC: 1.91862 cumulative IPC: 1.82628 (Simulation time: 0 hr 0 min 21 sec) 
Heartbeat CPU  0 instructions:   20000000 cycles:   10924837 heartbeat IPC: 1.91869 cumulative IPC: 1.83069 (Simulation time: 0 hr 0 min 23 sec) 
Heartbeat CPU  0 instructions:   21000003 cycles:   11446072 heartbeat IPC: 1.91853 cumulative IPC: 1.83469 (Simulation time: 0 hr 0 min 24 sec) 
Heartbeat CPU  0 instructions:   22000003 cycles:   11967260 heartbeat IPC: 1.91869 cumulative IPC: 1.83835 (Simulation time: 0 hr 0 min 25 sec) 
Heartbeat CPU  0 instructions:   23000000 cycles:   12480242 heartbeat IPC: 1.94938 cumulative IPC: 1.84291 (Simulation time: 0 hr 0 min 27 sec) 
Heartbeat CPU  0 instructions:   24000000 cycles:   12900523 heartbeat IPC: 2.37936 cumulative IPC: 1.86039 (Simulation time: 0 hr 0 min 27 sec) 
Heartbeat CPU  0 instructions:   25000000 cycles:   13320799 heartbeat IPC: 2.37939 cumulative IPC: 1.87676 (Simulation time: 0 hr 0 min 28 sec) 
Heartbeat CPU  0 instructions:   26000000 cycles:   13741085 heartbeat IPC: 2.37933 cumulative IPC: 1.89214 (Simulation time: 0 hr 0 min 29 sec) 
Heartbeat CPU  0 instructions:   27000000 cycles:   14161396 heartbeat IPC: 2.37919 cumulative IPC: 1.90659 (Simulation time: 0 hr 0 min 30 sec) 
Heartbeat CPU  0 instructions:   28000000 cycles:   14581704 heartbeat IPC: 2.37921 cumulative IPC: 1.92021 (Simulation time: 0 hr 0 min 30 sec) 
Heartbeat CPU  0 instructions:   29000002 cycles:   15001982 heartbeat IPC: 2.37938 cumulative IPC: 1.93308 (Simulation time: 0 hr 0 min 31 sec) 
Heartbeat CPU  0 instructions:   30000003 cycles:   15422248 heartbeat IPC: 2.37945 cumulative IPC: 1.94524 (Simulation time: 0 hr 0 min 32 sec) 
Heartbeat CPU  0 instructions:   31000001 cycles:   15842542 heartbeat IPC: 2.37928 cumulative IPC: 1.95676 (Simulation time: 0 hr 0 min 33 sec) 
Heartbeat CPU  0 instructions:   32000000 cycles:   16262861 heartbeat IPC: 2.37914 cumulative IPC: 1.96767 (Simulation time: 0 hr 0 min 33 sec) 
Heartbeat CPU  0 instructions:   33000003 cycles:   16683135 heartbeat IPC: 2.37941 cumulative IPC: 1.97805 (Simulation time: 0 hr 0 min 34 sec) 
Heartbeat CPU  0 instructions:   34000000 cycles:   17103397 heartbeat IPC: 2.37946 cumulative IPC: 1.98791 (Simulation time: 0 hr 0 min 35 sec) 
Heartbeat CPU  0 instructions:   35000002 cycles:   17523686 heartbeat IPC: 2.37932 cumulative IPC: 1.99730 (Simulation time: 0 hr 0 min 35 sec) 
Heartbeat CPU  0 instructions:   36000000 cycles:   17943999 heartbeat IPC: 2.37917 cumulative IPC: 2.00624 (Simulation time: 0 hr 0 min 36 sec) 
Heartbeat CPU  0 instructions:   37000000 cycles:   18364315 heartbeat IPC: 2.37916 cumulative IPC: 2.01478 (Simulation time: 0 hr 0 min 37 sec) 
Heartbeat CPU  0 instructions:   38000002 cycles:   18784584 heartbeat IPC: 2.37943 cumulative IPC: 2.02294 (Simulation time: 0 hr 0 min 38 sec) 
Heartbeat CPU  0 instructions:   39000000 cycles:   19204867 heartbeat IPC: 2.37934 cumulative IPC: 2.03074 (Simulation time: 0 hr 0 min 38 sec) 
Heartbeat CPU  0 instructions:   40000000 cycles:   19625161 heartbeat IPC: 2.37929 cumulative IPC: 2.03820 (Simulation time: 0 hr 0 min 39 sec) 
Heartbeat CPU  0 instructions:   41000002 cycles:   20045497 heartbeat IPC: 2.37905 cumulative IPC: 2.04535 (Simulation time: 0 hr 0 min 40 sec) 
Heartbeat CPU  0 instructions:   42000003 cycles:   20465767 heartbeat IPC: 2.37943 cumulative IPC: 2.05221 (Simulation time: 0 hr 0 min 41 sec) 
Heartbeat CPU  0 instructions:   43000001 cycles:   20886037 heartbeat IPC: 2.37942 cumulative IPC: 2.05879 (Simulation time: 0 hr 0 min 41 sec) 
Heartbeat CPU  0 instructions:   44000000 cycles:   21306307 heartbeat IPC: 2.37942 cumulative IPC: 2.06512 (Simulation time: 0 hr 0 min 42 sec) 
Heartbeat CPU  0 instructions:   45000001 cycles:   21726610 heartbeat IPC: 2.37924 cumulative IPC: 2.07119 (Simulation time: 0 hr 0 min 43 sec) 
Heartbeat CPU  0 instructions:   46000001 cycles:   22146917 heartbeat IPC: 2.37921 cumulative IPC: 2.07704 (Simulation time: 0 hr 0 min 44 sec) 
Heartbeat CPU  0 instructions:   47000000 cycles:   22726424 heartbeat IPC: 1.72560 cumulative IPC: 2.06808 (Simulation time: 0 hr 0 min 44 sec) 
Heartbeat CPU  0 instructions:   48000000 cycles:   23309163 heartbeat IPC: 1.71603 cumulative IPC: 2.05928 (Simulation time: 0 hr 0 min 45 sec) 
Heartbeat CPU  0 instructions:   49000000 cycles:   23891907 heartbeat IPC: 1.71602 cumulative IPC: 2.05090 (Simulation time: 0 hr 0 min 46 sec) 
Heartbeat CPU  0 instructions:   50000002 cycles:   24474649 heartbeat IPC: 1.71603 cumulative IPC: 2.04293 (Simulation time: 0 hr 0 min 47 sec) 
Heartbeat CPU  0 instructions:   51000002 cycles:   25057390 heartbeat IPC: 1.71603 cumulative IPC: 2.03533 (Simulation time: 0 hr 0 min 48 sec) 
Heartbeat CPU  0 instructions:   52000000 cycles:   25640129 heartbeat IPC: 1.71603 cumulative IPC: 2.02807 (Simulation time: 0 hr 0 min 49 sec) 
Heartbeat CPU  0 instructions:   53000000 cycles:   26222870 heartbeat IPC: 1.71603 cumulative IPC: 2.02114 (Simulation time: 0 hr 0 min 49 sec) 
Heartbeat CPU  0 instructions:   54000003 cycles:   26805613 heartbeat IPC: 1.71603 cumulative IPC: 2.01450 (Simulation time: 0 hr 0 min 50 sec) 
Heartbeat CPU  0 instructions:   55000002 cycles:   27388355 heartbeat IPC: 1.71602 cumulative IPC: 2.00815 (Simulation time: 0 hr 0 min 51 sec) 
Heartbeat CPU  0 instructions:   56000000 cycles:   27971094 heartbeat IPC: 1.71603 cumulative IPC: 2.00207 (Simulation time: 0 hr 0 min 52 sec) 
Heartbeat CPU  0 instructions:   57000000 cycles:   28553836 heartbeat IPC: 1.71603 cumulative IPC: 1.99623 (Simulation time: 0 hr 0 min 53 sec) 
Heartbeat CPU  0 instructions:   58000000 cycles:   29136580 heartbeat IPC: 1.71602 cumulative IPC: 1.99062 (Simulation time: 0 hr 0 min 54 sec) 
Heartbeat CPU  0 instructions:   59000000 cycles:   29719321 heartbeat IPC: 1.71603 cumulative IPC: 1.98524 (Simulation time: 0 hr 0 min 54 sec) 
Heartbeat CPU  0 instructions:   60000000 cycles:   30302064 heartbeat IPC: 1.71602 cumulative IPC: 1.98006 (Simulation time: 0 hr 0 min 55 sec) 
Heartbeat CPU  0 instructions:   61000002 cycles:   30884804 heartbeat IPC: 1.71603 cumulative IPC: 1.97508 (Simulation time: 0 hr 0 min 56 sec) 
Heartbeat CPU  0 instructions:   62000002 cycles:   31467545 heartbeat IPC: 1.71603 cumulative IPC: 1.97028 (Simulation time: 0 hr 0 min 57 sec) 
Heartbeat CPU  0 instructions:   63000001 cycles:   32050287 heartbeat IPC: 1.71602 cumulative IPC: 1.96566 (Simulation time: 0 hr 0 min 58 sec) 
Heartbeat CPU  0 instructions:   64000000 cycles:   32633026 heartbeat IPC: 1.71603 cumulative IPC: 1.96120 (Simulation time: 0 hr 0 min 59 sec) 
Heartbeat CPU  0 instructions:   65000003 cycles:   33215769 heartbeat IPC: 1.71603 cumulative IPC: 1.95690 (Simulation time: 0 hr 0 min 59 sec) 
Heartbeat CPU  0 instructions:   66000002 cycles:   33798511 heartbeat IPC: 1.71602 cumulative IPC: 1.95275 (Simulation time: 0 hr 1 min 0 sec) 
Heartbeat CPU  0 instructions:   67000001 cycles:   34381250 heartbeat IPC: 1.71603 cumulative IPC: 1.94874 (Simulation time: 0 hr 1 min 1 sec) 
Heartbeat CPU  0 instructions:   68000000 cycles:   34963993 heartbeat IPC: 1.71602 cumulative IPC: 1.94486 (Simulation time: 0 hr 1 min 2 sec) 
Heartbeat CPU  0 instructions:   69000000 cycles:   35546738 heartbeat IPC: 1.71602 cumulative IPC: 1.94111 (Simulation time: 0 hr 1 min 3 sec) 
Heartbeat CPU  0 instructions:   70000000 cycles:   36069804 heartbeat IPC: 1.91180 cumulative IPC: 1.94068 (Simulation time: 0 hr 1 min 4 sec) 
Heartbeat CPU  0 instructions:   71000003 cycles:   36587106 heartbeat IPC: 1.93311 cumulative IPC: 1.94057 (Simulation time: 0 hr 1 min 5 sec) 
Heartbeat CPU  0 instructions:   72000000 cycles:   37104388 heartbeat IPC: 1.93318 cumulative IPC: 1.94047 (Simulation time: 0 hr 1 min 7 sec) 
Heartbeat CPU  0 instructions:   73000002 cycles:   37621717 heartbeat IPC: 1.93301 cumulative IPC: 1.94037 (Simulation time: 0 hr 1 min 8 sec) 
Heartbeat CPU  0 instructions:   74000002 cycles:   38138999 heartbeat IPC: 1.93318 cumulative IPC: 1.94027 (Simulation time: 0 hr 1 min 9 sec) 
Heartbeat CPU  0 instructions:   75000001 cycles:   38656303 heartbeat IPC: 1.93310 cumulative IPC: 1.94018 (Simulation time: 0 hr 1 min 11 sec) 
Heartbeat CPU  0 instructions:   76000000 cycles:   39173585 heartbeat IPC: 1.93318 cumulative IPC: 1.94008 (Simulation time: 0 hr 1 min 12 sec) 
Heartbeat CPU  0 instructions:   77000001 cycles:   39690914 heartbeat IPC: 1.93301 cumulative IPC: 1.93999 (Simulation time: 0 hr 1 min 14 sec) 
Heartbeat CPU  0 instructions:   78000001 cycles:   40208196 heartbeat IPC: 1.93318 cumulative IPC: 1.93990 (Simulation time: 0 hr 1 min 15 sec) 
Heartbeat CPU  0 instructions:   79000000 cycles:   40725501 heartbeat IPC: 1.93309 cumulative IPC: 1.93982 (Simulation time: 0 hr 1 min 16 sec) 
Heartbeat CPU  0 instructions:   80000000 cycles:   41242783 heartbeat IPC: 1.93318 cumulative IPC: 1.93973 (Simulation time: 0 hr 1 min 18 sec) 
Heartbeat CPU  0 instructions:   81000000 cycles:   41760112 heartbeat IPC: 1.93301 cumulative IPC: 1.93965 (Simulation time: 0 hr 1 min 19 sec) 
Heartbeat CPU  0 instructions:   82000000 cycles:   42277394 heartbeat IPC: 1.93318 cumulative IPC: 1.93957 (Simulation time: 0 hr 1 min 20 sec) 
Heartbeat CPU  0 instructions:   83000003 cycles:   42794697 heartbeat IPC: 1.93311 cumulative IPC: 1.93949 (Simulation time: 0 hr 1 min 22 sec) 
Heartbeat CPU  0 instructions:   84000000 cycles:   43289375 heartbeat IPC: 2.02151 cumulative IPC: 1.94043 (Simulation time: 0 hr 1 min 23 sec) 
Heartbeat CPU  0 instructions:   85000000 cycles:   43709658 heartbeat IPC: 2.37935 cumulative IPC: 1.94465 (Simulation time: 0 hr 1 min 24 sec) 
Heartbeat CPU  0 instructions:   86000001 cycles:   44129945 heartbeat IPC: 2.37933 cumulative IPC: 1.94879 (Simulation time: 0 hr 1 min 25 sec) 
Heartbeat CPU  0 instructions:   87000003 cycles:   44550246 heartbeat IPC: 2.37925 cumulative IPC: 1.95285 (Simulation time: 0 hr 1 min 25 sec) 
Heartbeat CPU  0 instructions:   88000000 cycles:   44970606 heartbeat IPC: 2.37891 cumulative IPC: 1.95683 (Simulation time: 0 hr 1 min 26 sec) 
Heartbeat CPU  0 instructions:   89000001 cycles:   45390886 heartbeat IPC: 2.37937 cumulative IPC: 1.96075 (Simulation time: 0 hr 1 min 27 sec) 
Heartbeat CPU  0 instructions:   90000001 cycles:   45811165 heartbeat IPC: 2.37937 cumulative IPC: 1.96459 (Simulation time: 0 hr 1 min 27 sec) 
Heartbeat CPU  0 instructions:   91000000 cycles:   46231445 heartbeat IPC: 2.37936 cumulative IPC: 1.96836 (Simulation time: 0 hr 1 min 28 sec) 
Heartbeat CPU  0 instructions:   92000000 cycles:   46651752 heartbeat IPC: 2.37921 cumulative IPC: 1.97206 (Simulation time: 0 hr 1 min 29 sec) 
Heartbeat CPU  0 instructions:   93000003 cycles:   47072085 heartbeat IPC: 2.37907 cumulative IPC: 1.97569 (Simulation time: 0 hr 1 min 30 sec) 
Heartbeat CPU  0 instructions:   94000000 cycles:   47492367 heartbeat IPC: 2.37935 cumulative IPC: 1.97927 (Simulation time: 0 hr 1 min 30 sec) 
Heartbeat CPU  0 instructions:   95000002 cycles:   47912650 heartbeat IPC: 2.37935 cumulative IPC: 1.98277 (Simulation time: 0 hr 1 min 31 sec) 
Heartbeat CPU  0 instructions:   96000000 cycles:   48332945 heartbeat IPC: 2.37928 cumulative IPC: 1.98622 (Simulation time: 0 hr 1 min 32 sec) 
Heartbeat CPU  0 instructions:   97000000 cycles:   48753301 heartbeat IPC: 2.37894 cumulative IPC: 1.98961 (Simulation time: 0 hr 1 min 33 sec) 
Heartbeat CPU  0 instructions:   98000000 cycles:   49173591 heartbeat IPC: 2.37931 cumulative IPC: 1.99294 (Simulation time: 0 hr 1 min 33 sec) 
Heartbeat CPU  0 instructions:   99000003 cycles:   49593886 heartbeat IPC: 2.37929 cumulative IPC: 1.99621 (Simulation time: 0 hr 1 min 34 sec) 
Heartbeat CPU  0 instructions:  100000000 cycles:   50014171 heartbeat IPC: 2.37933 cumulative IPC: 1.99943 (Simulation time: 0 hr 1 min 35 sec) 

Warmup complete CPU  0 instructions:  100000001 cycles:   50014173 (Simulation time: 0 hr 1 min 35 sec) 

Heartbeat CPU  0 instructions:  101000003 cycles:   51278572 heartbeat IPC: 0.79089 cumulative IPC: 0.79089 (Simulation time: 0 hr 1 min 36 sec) 
Heartbeat CPU  0 instructions:  102000003 cycles:   52514725 heartbeat IPC: 0.80896 cumulative IPC: 0.79982 (Simulation time: 0 hr 1 min 38 sec) 
Heartbeat CPU  0 instructions:  103000001 cycles:   53782115 heartbeat IPC: 0.78902 cumulative IPC: 0.79619 (Simulation time: 0 hr 1 min 39 sec) 
Heartbeat CPU  0 instructions:  104000000 cycles:   55045911 heartbeat IPC: 0.79127 cumulative IPC: 0.79495 (Simulation time: 0 hr 1 min 41 sec) 
Heartbeat CPU  0 instructions:  105000000 cycles:   56316928 heartbeat IPC: 0.78677 cumulative IPC: 0.79330 (Simulation time: 0 hr 1 min 42 sec) 
Heartbeat CPU  0 instructions:  106000002 cycles:   57585290 heartbeat IPC: 0.78842 cumulative IPC: 0.79249 (Simulation time: 0 hr 1 min 44 sec) 
Heartbeat CPU  0 instructions:  107000001 cycles:   58859329 heartbeat IPC: 0.78490 cumulative IPC: 0.79139 (Simulation time: 0 hr 1 min 45 sec) 
Heartbeat CPU  0 instructions:  108000000 cycles:   60106268 heartbeat IPC: 0.80196 cumulative IPC: 0.79270 (Simulation time: 0 hr 1 min 46 sec) 
Heartbeat CPU  0 instructions:  109000000 cycles:   61434768 heartbeat IPC: 0.75273 cumulative IPC: 0.78805 (Simulation time: 0 hr 1 min 48 sec) 
Heartbeat CPU  0 instructions:  110000001 cycles:   62810536 heartbeat IPC: 0.72687 cumulative IPC: 0.78147 (Simulation time: 0 hr 1 min 49 sec) 
Heartbeat CPU  0 instructions:  111000001 cycles:   64212319 heartbeat IPC: 0.71338 cumulative IPC: 0.77475 (Simulation time: 0 hr 1 min 51 sec) 
Heartbeat CPU  0 instructions:  112000000 cycles:   65595621 heartbeat IPC: 0.72291 cumulative IPC: 0.77015 (Simulation time: 0 hr 1 min 52 sec) 
Heartbeat CPU  0 instructions:  113000002 cycles:   66987869 heartbeat IPC: 0.71826 cumulative IPC: 0.76589 (Simulation time: 0 hr 1 min 54 sec) 
Heartbeat CPU  0 instructions:  114000002 cycles:   68394441 heartbeat IPC: 0.71095 cumulative IPC: 0.76169 (Simulation time: 0 hr 1 min 55 sec) 
Heartbeat CPU  0 instructions:  115000003 cycles:   69809291 heartbeat IPC: 0.70679 cumulative IPC: 0.75776 (Simulation time: 0 hr 1 min 57 sec) 
Heartbeat CPU  0 instructions:  116000000 cycles:   71201062 heartbeat IPC: 0.71851 cumulative IPC: 0.75518 (Simulation time: 0 hr 1 min 58 sec) 
Heartbeat CPU  0 instructions:  117000000 cycles:   72586875 heartbeat IPC: 0.72160 cumulative IPC: 0.75312 (Simulation time: 0 hr 2 min 0 sec) 
Heartbeat CPU  0 instructions:  118000000 cycles:   73982671 heartbeat IPC: 0.71644 cumulative IPC: 0.75099 (Simulation time: 0 hr 2 min 1 sec) 
Heartbeat CPU  0 instructions:  119000001 cycles:   75362120 heartbeat IPC: 0.72493 cumulative IPC: 0.74957 (Simulation time: 0 hr 2 min 2 sec) 
Heartbeat CPU  0 instructions:  120000000 cycles:   76743947 heartbeat IPC: 0.72368 cumulative IPC: 0.74823 (Simulation time: 0 hr 2 min 4 sec) 
Heartbeat CPU  0 instructions:  121000000 cycles:   78131909 heartbeat IPC: 0.72048 cumulative IPC: 0.74686 (Simulation time: 0 hr 2 min 5 sec) 
Heartbeat CPU  0 instructions:  122000002 cycles:   79524901 heartbeat IPC: 0.71788 cumulative IPC: 0.74549 (Simulation time: 0 hr 2 min 7 sec) 
Heartbeat CPU  0 instructions:  123000002 cycles:   80923652 heartbeat IPC: 0.71492 cumulative IPC: 0.74411 (Simulation time: 0 hr 2 min 8 sec) 
Heartbeat CPU  0 instructions:  124000000 cycles:   82293482 heartbeat IPC: 0.73002 cumulative IPC: 0.74351 (Simulation time: 0 hr 2 min 10 sec) 
Heartbeat CPU  0 instructions:  125000003 cycles:   83665947 heartbeat IPC: 0.72862 cumulative IPC: 0.74290 (Simulation time: 0 hr 2 min 11 sec) 
Heartbeat CPU  0 instructions:  126000000 cycles:   85050149 heartbeat IPC: 0.72244 cumulative IPC: 0.74209 (Simulation time: 0 hr 2 min 13 sec) 
Heartbeat CPU  0 instructions:  127000000 cycles:   86418630 heartbeat IPC: 0.73074 cumulative IPC: 0.74167 (Simulation time: 0 hr 2 min 14 sec) 
Heartbeat CPU  0 instructions:  128000000 cycles:   87799848 heartbeat IPC: 0.72400 cumulative IPC: 0.74102 (Simulation time: 0 hr 2 min 16 sec) 
Heartbeat CPU  0 instructions:  129000001 cycles:   89193727 heartbeat IPC: 0.71742 cumulative IPC: 0.74018 (Simulation time: 0 hr 2 min 17 sec) 
Heartbeat CPU  0 instructions:  130000001 cycles:   90566640 heartbeat IPC: 0.72838 cumulative IPC: 0.73978 (Simulation time: 0 hr 2 min 18 sec) 
Heartbeat CPU  0 instructions:  131000000 cycles:   92852807 heartbeat IPC: 0.43741 cumulative IPC: 0.72365 (Simulation time: 0 hr 2 min 20 sec) 
Heartbeat CPU  0 instructions:  132000000 cycles:   95683365 heartbeat IPC: 0.35329 cumulative IPC: 0.70069 (Simulation time: 0 hr 2 min 23 sec) 
Heartbeat CPU  0 instructions:  133000000 cycles:   98653476 heartbeat IPC: 0.33669 cumulative IPC: 0.67846 (Simulation time: 0 hr 2 min 25 sec) 
Heartbeat CPU  0 instructions:  134000000 cycles:  101641792 heartbeat IPC: 0.33464 cumulative IPC: 0.65856 (Simulation time: 0 hr 2 min 27 sec) 
Heartbeat CPU  0 instructions:  135000000 cycles:  104623440 heartbeat IPC: 0.33538 cumulative IPC: 0.64092 (Simulation time: 0 hr 2 min 29 sec) 
Heartbeat CPU  0 instructions:  136000000 cycles:  107598876 heartbeat IPC: 0.33609 cumulative IPC: 0.62517 (Simulation time: 0 hr 2 min 31 sec) 
Heartbeat CPU  0 instructions:  137000000 cycles:  110585057 heartbeat IPC: 0.33488 cumulative IPC: 0.61085 (Simulation time: 0 hr 2 min 34 sec) 
Heartbeat CPU  0 instructions:  138000000 cycles:  113579229 heartbeat IPC: 0.33398 cumulative IPC: 0.59781 (Simulation time: 0 hr 2 min 36 sec) 
Heartbeat CPU  0 instructions:  139000000 cycles:  116572178 heartbeat IPC: 0.33412 cumulative IPC: 0.58596 (Simulation time: 0 hr 2 min 38 sec) 
Heartbeat CPU  0 instructions:  140000000 cycles:  119541412 heartbeat IPC: 0.33679 cumulative IPC: 0.57531 (Simulation time: 0 hr 2 min 40 sec) 
Heartbeat CPU  0 instructions:  141000000 cycles:  122533733 heartbeat IPC: 0.33419 cumulative IPC: 0.56536 (Simulation time: 0 hr 2 min 43 sec) 
Heartbeat CPU  0 instructions:  142000000 cycles:  125517039 heartbeat IPC: 0.33520 cumulative IPC: 0.55627 (Simulation time: 0 hr 2 min 45 sec) 
Heartbeat CPU  0 instructions:  143000000 cycles:  128511410 heartbeat IPC: 0.33396 cumulative IPC: 0.54779 (Simulation time: 0 hr 2 min 47 sec) 
Heartbeat CPU  0 instructions:  144000000 cycles:  131475988 heartbeat IPC: 0.33732 cumulative IPC: 0.54013 (Simulation time: 0 hr 2 min 49 sec) 
Heartbeat CPU  0 instructions:  145000002 cycles:  134259070 heartbeat IPC: 0.35931 cumulative IPC: 0.53416 (Simulation time: 0 hr 2 min 51 sec) 
Heartbeat CPU  0 instructions:  146000000 cycles:  136355435 heartbeat IPC: 0.47702 cumulative IPC: 0.53277 (Simulation time: 0 hr 2 min 53 sec) 
Heartbeat CPU  0 instructions:  147000000 cycles:  138153663 heartbeat IPC: 0.55610 cumulative IPC: 0.53325 (Simulation time: 0 hr 2 min 55 sec) 
Heartbeat CPU  0 instructions:  148000000 cycles:  139739726 heartbeat IPC: 0.63049 cumulative IPC: 0.53496 (Simulation time: 0 hr 2 min 56 sec) 
Heartbeat CPU  0 instructions:  149000000 cycles:  141158317 heartbeat IPC: 0.70492 cumulative IPC: 0.53761 (Simulation time: 0 hr 2 min 58 sec) 
Heartbeat CPU  0 instructions:  150000000 cycles:  142464462 heartbeat IPC: 0.76561 cumulative IPC: 0.54083 (Simulation time: 0 hr 2 min 59 sec) 
Heartbeat CPU  0 instructions:  151000001 cycles:  143771389 heartbeat IPC: 0.76515 cumulative IPC: 0.54396 (Simulation time: 0 hr 3 min 1 sec) 
Heartbeat CPU  0 instructions:  152000000 cycles:  145076298 heartbeat IPC: 0.76634 cumulative IPC: 0.54701 (Simulation time: 0 hr 3 min 2 sec) 
Heartbeat CPU  0 instructions:  153000001 cycles:  146396496 heartbeat IPC: 0.75746 cumulative IPC: 0.54989 (Simulation time: 0 hr 3 min 4 sec) 
Heartbeat CPU  0 instructions:  154000003 cycles:  147668892 heartbeat IPC: 0.78592 cumulative IPC: 0.55297 (Simulation time: 0 hr 3 min 5 sec) 
Heartbeat CPU  0 instructions:  155000001 cycles:  148946205 heartbeat IPC: 0.78289 cumulative IPC: 0.55594 (Simulation time: 0 hr 3 min 6 sec) 
Heartbeat CPU  0 instructions:  156000000 cycles:  150217746 heartbeat IPC: 0.78645 cumulative IPC: 0.55886 (Simulation time: 0 hr 3 min 8 sec) 
Heartbeat CPU  0 instructions:  157000002 cycles:  151488551 heartbeat IPC: 0.78690 cumulative IPC: 0.56172 (Simulation time: 0 hr 3 min 9 sec) 
Heartbeat CPU  0 instructions:  158000000 cycles:  152758283 heartbeat IPC: 0.78757 cumulative IPC: 0.56451 (Simulation time: 0 hr 3 min 11 sec) 
Heartbeat CPU  0 instructions:  159000002 cycles:  154025684 heartbeat IPC: 0.78902 cumulative IPC: 0.56724 (Simulation time: 0 hr 3 min 12 sec) 
Heartbeat CPU  0 instructions:  160000000 cycles:  155303613 heartbeat IPC: 0.78251 cumulative IPC: 0.56986 (Simulation time: 0 hr 3 min 14 sec) 
Heartbeat CPU  0 instructions:  161000000 cycles:  156569757 heartbeat IPC: 0.78980 cumulative IPC: 0.57247 (Simulation time: 0 hr 3 min 15 sec) 
Heartbeat CPU  0 instructions:  162000002 cycles:  157845119 heartbeat IPC: 0.78409 cumulative IPC: 0.57497 (Simulation time: 0 hr 3 min 17 sec) 
Heartbeat CPU  0 instructions:  163000000 cycles:  159118696 heartbeat IPC: 0.78519 cumulative IPC: 0.57743 (Simulation time: 0 hr 3 min 18 sec) 
Heartbeat CPU  0 instructions:  164000000 cycles:  160390299 heartbeat IPC: 0.78641 cumulative IPC: 0.57984 (Simulation time: 0 hr 3 min 19 sec) 
Heartbeat CPU  0 instructions:  165000001 cycles:  161653193 heartbeat IPC: 0.79183 cumulative IPC: 0.58223 (Simulation time: 0 hr 3 min 21 sec) 
Heartbeat CPU  0 instructions:  166000003 cycles:  162933762 heartbeat IPC: 0.78090 cumulative IPC: 0.58449 (Simulation time: 0 hr 3 min 22 sec) 
Heartbeat CPU  0 instructions:  167000001 cycles:  164201649 heartbeat IPC: 0.78871 cumulative IPC: 0.58675 (Simulation time: 0 hr 3 min 24 sec) 
Heartbeat CPU  0 instructions:  168000000 cycles:  165480717 heartbeat IPC: 0.78182 cumulative IPC: 0.58892 (Simulation time: 0 hr 3 min 25 sec) 
Heartbeat CPU  0 instructions:  169000000 cycles:  166744790 heartbeat IPC: 0.79109 cumulative IPC: 0.59110 (Simulation time: 0 hr 3 min 27 sec) 
Heartbeat CPU  0 instructions:  170000003 cycles:  168134781 heartbeat IPC: 0.71943 cumulative IPC: 0.59261 (Simulation time: 0 hr 3 min 28 sec) 
Heartbeat CPU  0 instructions:  171000001 cycles:  169606650 heartbeat IPC: 0.67941 cumulative IPC: 0.59368 (Simulation time: 0 hr 3 min 30 sec) 
Heartbeat CPU  0 instructions:  172000000 cycles:  171109866 heartbeat IPC: 0.66524 cumulative IPC: 0.59457 (Simulation time: 0 hr 3 min 31 sec) 
Heartbeat CPU  0 instructions:  173000001 cycles:  172600921 heartbeat IPC: 0.67067 cumulative IPC: 0.59550 (Simulation time: 0 hr 3 min 33 sec) 
Heartbeat CPU  0 instructions:  174000000 cycles:  174090160 heartbeat IPC: 0.67148 cumulative IPC: 0.59641 (Simulation time: 0 hr 3 min 34 sec) 
Heartbeat CPU  0 instructions:  175000002 cycles:  175575087 heartbeat IPC: 0.67344 cumulative IPC: 0.59732 (Simulation time: 0 hr 3 min 36 sec) 
Heartbeat CPU  0 instructions:  176000000 cycles:  177069787 heartbeat IPC: 0.66903 cumulative IPC: 0.59816 (Simulation time: 0 hr 3 min 37 sec) 
Heartbeat CPU  0 instructions:  177000002 cycles:  178557031 heartbeat IPC: 0.67239 cumulative IPC: 0.59902 (Simulation time: 0 hr 3 min 39 sec) 
Heartbeat CPU  0 instructions:  178000000 cycles:  180044409 heartbeat IPC: 0.67232 cumulative IPC: 0.59986 (Simulation time: 0 hr 3 min 41 sec) 
Heartbeat CPU  0 instructions:  179000003 cycles:  181520600 heartbeat IPC: 0.67742 cumulative IPC: 0.60073 (Simulation time: 0 hr 3 min 42 sec) 
Heartbeat CPU  0 instructions:  180000000 cycles:  183012852 heartbeat IPC: 0.67013 cumulative IPC: 0.60151 (Simulation time: 0 hr 3 min 44 sec) 
Heartbeat CPU  0 instructions:  181000000 cycles:  184494759 heartbeat IPC: 0.67481 cumulative IPC: 0.60232 (Simulation time: 0 hr 3 min 45 sec) 
Heartbeat CPU  0 instructions:  182000001 cycles:  185983639 heartbeat IPC: 0.67165 cumulative IPC: 0.60308 (Simulation time: 0 hr 3 min 47 sec) 
Heartbeat CPU  0 instructions:  183000000 cycles:  187467794 heartbeat IPC: 0.67378 cumulative IPC: 0.60384 (Simulation time: 0 hr 3 min 48 sec) 
Heartbeat CPU  0 instructions:  184000000 cycles:  188947933 heartbeat IPC: 0.67561 cumulative IPC: 0.60460 (Simulation time: 0 hr 3 min 50 sec) 
Heartbeat CPU  0 instructions:  185000001 cycles:  190416780 heartbeat IPC: 0.68081 cumulative IPC: 0.60540 (Simulation time: 0 hr 3 min 52 sec) 
Heartbeat CPU  0 instructions:  186000002 cycles:  191888674 heartbeat IPC: 0.67940 cumulative IPC: 0.60617 (Simulation time: 0 hr 3 min 53 sec) 
Heartbeat CPU  0 instructions:  187000000 cycles:  193367262 heartbeat IPC: 0.67632 cumulative IPC: 0.60689 (Simulation time: 0 hr 3 min 55 sec) 
Heartbeat CPU  0 instructions:  188000000 cycles:  194824160 heartbeat IPC: 0.68639 cumulative IPC: 0.60769 (Simulation time: 0 hr 3 min 56 sec) 
Heartbeat CPU  0 instructions:  189000001 cycles:  196303904 heartbeat IPC: 0.67579 cumulative IPC: 0.60838 (Simulation time: 0 hr 3 min 58 sec) 
Heartbeat CPU  0 instructions:  190000000 cycles:  197780659 heartbeat IPC: 0.67716 cumulative IPC: 0.60907 (Simulation time: 0 hr 3 min 59 sec) 
Heartbeat CPU  0 instructions:  191000000 cycles:  199266218 heartbeat IPC: 0.67315 cumulative IPC: 0.60971 (Simulation time: 0 hr 4 min 1 sec) 
Heartbeat CPU  0 instructions:  192000000 cycles:  201593721 heartbeat IPC: 0.42965 cumulative IPC: 0.60694 (Simulation time: 0 hr 4 min 3 sec) 
Heartbeat CPU  0 instructions:  193000000 cycles:  204447197 heartbeat IPC: 0.35045 cumulative IPC: 0.60220 (Simulation time: 0 hr 4 min 5 sec) 
Heartbeat CPU  0 instructions:  194000000 cycles:  207395174 heartbeat IPC: 0.33922 cumulative IPC: 0.59728 (Simulation time: 0 hr 4 min 7 sec) 
Heartbeat CPU  0 instructions:  195000000 cycles:  210348424 heartbeat IPC: 0.33861 cumulative IPC: 0.59251 (Simulation time: 0 hr 4 min 10 sec) 
Heartbeat CPU  0 instructions:  196000000 cycles:  213296255 heartbeat IPC: 0.33923 cumulative IPC: 0.58794 (Simulation time: 0 hr 4 min 12 sec) 
Heartbeat CPU  0 instructions:  197000000 cycles:  216243953 heartbeat IPC: 0.33925 cumulative IPC: 0.58353 (Simulation time: 0 hr 4 min 14 sec) 
Heartbeat CPU  0 instructions:  198000000 cycles:  219195889 heartbeat IPC: 0.33876 cumulative IPC: 0.57926 (Simulation time: 0 hr 4 min 16 sec) 
Heartbeat CPU  0 instructions:  199000000 cycles:  222151912 heartbeat IPC: 0.33829 cumulative IPC: 0.57512 (Simulation time: 0 hr 4 min 18 sec) 
Heartbeat CPU  0 instructions:  200000000 cycles:  225110513 heartbeat IPC: 0.33800 cumulative IPC: 0.57111 (Simulation time: 0 hr 4 min 21 sec) 
Finished CPU 0 instructions: 100000000 cycles: 175096353 cumulative IPC: 0.57111 (Simulation time: 0 hr 4 min 21 sec) 

ChampSim completed all CPUs

[ROI Statistics]
Core_0_instructions 100000000
Core_0_cycles 175096353
Core_0_IPC 0.57111

Core_0_branch_prediction_accuracy 99.58952
Core_0_branch_MPKI 0.70683
Core_0_average_ROB_occupancy_at_mispredict 218.78031

Core_0_L1D_total_access 21103150
Core_0_L1D_total_hit 18526912
Core_0_L1D_total_miss 2576238
Core_0_L1D_loads 10289700
Core_0_L1D_load_hit 8179538
Core_0_L1D_load_miss 2110162
Core_0_L1D_RFOs 3492975
Core_0_L1D_RFO_hit 3492955
Core_0_L1D_RFO_miss 20
Core_0_L1D_prefetches 7320475
Core_0_L1D_prefetch_hit 6854419
Core_0_L1D_prefetch_miss 466056
Core_0_L1D_writebacks 0
Core_0_L1D_writeback_hit 0
Core_0_L1D_writeback_miss 0
Core_0_L1D_prefetch_requested 42095075
Core_0_L1D_prefetch_issued 41822437
Core_0_L1D_prefetch_useful 2856155
Core_0_L1D_prefetch_useless 30
Core_0_L1D_prefetch_late 1988313
Core_0_L1D_average_miss_latency 102071869.47300

Core_0_L1I_total_access 32679572
Core_0_L1I_total_hit 32679571
Core_0_L1I_total_miss 1
Core_0_L1I_loads 32679572
Core_0_L1I_load_hit 32679571
Core_0_L1I_load_miss 1
Core_0_L1I_RFOs 0
Core_0_L1I_RFO_hit 0
Core_0_L1I_RFO_miss 0
Core_0_L1I_prefetches 0
Core_0_L1I_prefetch_hit 0
Core_0_L1I_prefetch_miss 0
Core_0_L1I_writebacks 0
Core_0_L1I_writeback_hit 0
Core_0_L1I_writeback_miss 0
Core_0_L1I_prefetch_requested 0
Core_0_L1I_prefetch_issued 0
Core_0_L1I_prefetch_useful 0
Core_0_L1I_prefetch_useless 0
Core_0_L1I_prefetch_late 0
Core_0_L1I_average_miss_latency 231.00000

Core_0_L2C_total_access 3526385
Core_0_L2C_total_hit 950146
Core_0_L2C_total_miss 2576239
Core_0_L2C_loads 179198
Core_0_L2C_load_hit 0
Core_0_L2C_load_miss 179198
Core_0_L2C_RFOs 20
Core_0_L2C_RFO_hit 0
Core_0_L2C_RFO_miss 20
Core_0_L2C_prefetches 2397021
Core_0_L2C_prefetch_hit 0
Core_0_L2C_prefetch_miss 2397021
Core_0_L2C_writebacks 950146
Core_0_L2C_writeback_hit 950146
Core_0_L2C_writeback_miss 0
Core_0_L2C_prefetch_requested 0
Core_0_L2C_prefetch_issued 0
Core_0_L2C_prefetch_useful 0
Core_0_L2C_prefetch_useless 4837460
Core_0_L2C_prefetch_late 0
Core_0_L2C_average_miss_latency 149.94392

Core_0_LLC_total_access 3800414
Core_0_LLC_total_hit 530815
Core_0_LLC_total_miss 3269599
Core_0_LLC_loads 179198
Core_0_LLC_load_hit 979
Core_0_LLC_load_miss 178219
Core_0_LLC_RFOs 20
Core_0_LLC_RFO_hit 0
Core_0_LLC_RFO_miss 20
Core_0_LLC_prefetches 2678493
Core_0_LLC_prefetch_hit 293514
Core_0_LLC_prefetch_miss 2384979
Core_0_LLC_writebacks 942703
Core_0_LLC_writeback_hit 236322
Core_0_LLC_writeback_miss 706381
Core_0_LLC_prefetch_requested 4613435
Core_0_LLC_prefetch_issued 4533241
Core_0_LLC_prefetch_useful 164104
Core_0_LLC_prefetch_useless 4825567
Core_0_LLC_prefetch_late 0
Core_0_LLC_average_miss_latency 113.57037

Core_0_major_page_fault 0
Core_0_minor_page_fault 8199

CPU 0 L1D next line prefetcher final stats
LLC Next Line Prefetcher Final Stats: none
Channel_0_RQ_row_buffer_hit 1394057
Channel_0_RQ_row_buffer_miss 1169162
Channel_0_WQ_row_buffer_hit 465009
Channel_0_WQ_row_buffer_miss 447732
Channel_0_WQ_full 0
Channel_0_dbus_congested 1728540

avg_congested_cycle 9
