*************************************************
   ChampSim Multicore Out-of-Order Simulator
   Last compiled: Jan 18 2024 13:33:55
*************************************************

trace_0 ./traces/437.leslie3d-134B.champsimtrace.xz
CPU 0 L2C IP-based stride prefetcher
Initialize HawkEye state
LLC Next Line Prefetcher
warmup_instructions 100000000
simulation_instructions 100000000
champsim_seed 218

num_cpus 1
cpu_freq 4000
dram_io_freq 2400
page_size 4096
block_size 64
max_read_per_cycle 8
max_fill_per_cycle 1
dram_channels 1
dram_ranks 1
dram_banks 8
dram_rows 65536
dram_columns 128
dram_row_size 8
dram_size 4096
dram_pages 1048576

fetch_width 6
decode_width 6
exec_width 4
lq_width 2
sq_width 2
retire_width 4
scheduler_size 128
branch_mispredict_penalty 20
rob_size 256
lq_size 72
sq_size 56
num_instr_destinations_sparc 4
num_instr_destinations 2
num_instr_sources 4

itlb_set 16
itlb_way 8
itlb_rq_size 16
itlb_wq_size 16
itlb_pq_size 0
itlb_mshr_size 8
itlb_latency 1

dtlb_set 16
dtlb_way 4
dtlb_rq_size 16
dtlb_wq_size 16
dtlb_pq_size 0
dtlb_mshr_size 8
dtlb_latency 1

stlb_set 128
stlb_way 12
stlb_rq_size 32
stlb_wq_size 32
stlb_pq_size 0
stlb_mshr_size 16
stlb_latency 8

l1i_size 32
l1i_set 64
l1i_way 8
l1i_rq_size 64
l1i_wq_size 64
l1i_pq_size 8
l1i_mshr_size 8
l1i_latency 1

l1d_size 32
l1d_set 64
l1d_way 8
l1d_rq_size 64
l1d_wq_size 64
l1d_pq_size 8
l1d_mshr_size 16
l1d_latency 4

l2c_size 512
l2c_set 1024
l2c_way 8
l2c_rq_size 32
l2c_wq_size 32
l2c_pq_size 16
l2c_mshr_size 32
l2c_latency 10

llc_size 2048
llc_set 2048
llc_way 16
llc_rq_size 32
llc_wq_size 32
llc_pq_size 32
llc_mshr_size 64
llc_latency 20

dram_channel_width 8
dram_wq_size 64
dram_rq_size 64
tRP 15
tRCD 15
tCAS 12.5
dram_dbus_turn_around_time 30
dram_write_high_wm 56
dram_write_low_wm 48
min_dram_writes_per_switch 16
dram_mtps 2400
dram_dbus_return_time 13


Heartbeat CPU  0 instructions:    1000002 cycles:     501961 heartbeat IPC: 1.99219 cumulative IPC: 1.99219 (Simulation time: 0 hr 0 min 2 sec) 
Heartbeat CPU  0 instructions:    2000001 cycles:     993140 heartbeat IPC: 2.03592 cumulative IPC: 2.01382 (Simulation time: 0 hr 0 min 3 sec) 
Heartbeat CPU  0 instructions:    3000001 cycles:    1489611 heartbeat IPC: 2.01422 cumulative IPC: 2.01395 (Simulation time: 0 hr 0 min 4 sec) 
Heartbeat CPU  0 instructions:    4000000 cycles:    1990932 heartbeat IPC: 1.99473 cumulative IPC: 2.00911 (Simulation time: 0 hr 0 min 6 sec) 
Heartbeat CPU  0 instructions:    5000000 cycles:    2492492 heartbeat IPC: 1.99378 cumulative IPC: 2.00602 (Simulation time: 0 hr 0 min 7 sec) 
Heartbeat CPU  0 instructions:    6000001 cycles:    2993827 heartbeat IPC: 1.99468 cumulative IPC: 2.00412 (Simulation time: 0 hr 0 min 8 sec) 
Heartbeat CPU  0 instructions:    7000000 cycles:    3480153 heartbeat IPC: 2.05623 cumulative IPC: 2.01141 (Simulation time: 0 hr 0 min 10 sec) 
Heartbeat CPU  0 instructions:    8000000 cycles:    3981586 heartbeat IPC: 1.99428 cumulative IPC: 2.00925 (Simulation time: 0 hr 0 min 11 sec) 
Heartbeat CPU  0 instructions:    9000001 cycles:    4482305 heartbeat IPC: 1.99713 cumulative IPC: 2.00790 (Simulation time: 0 hr 0 min 12 sec) 
Heartbeat CPU  0 instructions:   10000000 cycles:    4983772 heartbeat IPC: 1.99415 cumulative IPC: 2.00651 (Simulation time: 0 hr 0 min 14 sec) 
Heartbeat CPU  0 instructions:   11000001 cycles:    5477226 heartbeat IPC: 2.02653 cumulative IPC: 2.00832 (Simulation time: 0 hr 0 min 15 sec) 
Heartbeat CPU  0 instructions:   12000000 cycles:    5971619 heartbeat IPC: 2.02268 cumulative IPC: 2.00951 (Simulation time: 0 hr 0 min 16 sec) 
Heartbeat CPU  0 instructions:   13000003 cycles:    6472881 heartbeat IPC: 1.99497 cumulative IPC: 2.00838 (Simulation time: 0 hr 0 min 18 sec) 
Heartbeat CPU  0 instructions:   14000001 cycles:    6974045 heartbeat IPC: 1.99535 cumulative IPC: 2.00744 (Simulation time: 0 hr 0 min 19 sec) 
Heartbeat CPU  0 instructions:   15000003 cycles:    7475295 heartbeat IPC: 1.99502 cumulative IPC: 2.00661 (Simulation time: 0 hr 0 min 20 sec) 
Heartbeat CPU  0 instructions:   16000000 cycles:    7961989 heartbeat IPC: 2.05467 cumulative IPC: 2.00955 (Simulation time: 0 hr 0 min 22 sec) 
Heartbeat CPU  0 instructions:   17000001 cycles:    8463276 heartbeat IPC: 1.99487 cumulative IPC: 2.00868 (Simulation time: 0 hr 0 min 23 sec) 
Heartbeat CPU  0 instructions:   18000001 cycles:    8964227 heartbeat IPC: 1.99620 cumulative IPC: 2.00798 (Simulation time: 0 hr 0 min 24 sec) 
Heartbeat CPU  0 instructions:   19000003 cycles:    9465130 heartbeat IPC: 1.99640 cumulative IPC: 2.00737 (Simulation time: 0 hr 0 min 26 sec) 
Heartbeat CPU  0 instructions:   20000000 cycles:    9961402 heartbeat IPC: 2.01502 cumulative IPC: 2.00775 (Simulation time: 0 hr 0 min 27 sec) 
Heartbeat CPU  0 instructions:   21000001 cycles:   10452974 heartbeat IPC: 2.03429 cumulative IPC: 2.00900 (Simulation time: 0 hr 0 min 28 sec) 
Heartbeat CPU  0 instructions:   22000003 cycles:   10954431 heartbeat IPC: 1.99419 cumulative IPC: 2.00832 (Simulation time: 0 hr 0 min 30 sec) 
Heartbeat CPU  0 instructions:   23000001 cycles:   11456174 heartbeat IPC: 1.99305 cumulative IPC: 2.00765 (Simulation time: 0 hr 0 min 31 sec) 
Heartbeat CPU  0 instructions:   24000000 cycles:   11957378 heartbeat IPC: 1.99519 cumulative IPC: 2.00713 (Simulation time: 0 hr 0 min 32 sec) 
Heartbeat CPU  0 instructions:   25000003 cycles:   12443586 heartbeat IPC: 2.05674 cumulative IPC: 2.00907 (Simulation time: 0 hr 0 min 34 sec) 
Heartbeat CPU  0 instructions:   26000001 cycles:   12945105 heartbeat IPC: 1.99394 cumulative IPC: 2.00848 (Simulation time: 0 hr 0 min 35 sec) 
Heartbeat CPU  0 instructions:   27000003 cycles:   13446694 heartbeat IPC: 1.99367 cumulative IPC: 2.00793 (Simulation time: 0 hr 0 min 36 sec) 
Heartbeat CPU  0 instructions:   28000000 cycles:   13948218 heartbeat IPC: 1.99392 cumulative IPC: 2.00742 (Simulation time: 0 hr 0 min 38 sec) 
Heartbeat CPU  0 instructions:   29000002 cycles:   14445470 heartbeat IPC: 2.01106 cumulative IPC: 2.00755 (Simulation time: 0 hr 0 min 39 sec) 
Heartbeat CPU  0 instructions:   30000000 cycles:   14935556 heartbeat IPC: 2.04045 cumulative IPC: 2.00863 (Simulation time: 0 hr 0 min 40 sec) 
Heartbeat CPU  0 instructions:   31000002 cycles:   15436793 heartbeat IPC: 1.99507 cumulative IPC: 2.00819 (Simulation time: 0 hr 0 min 42 sec) 
Heartbeat CPU  0 instructions:   32000000 cycles:   15937834 heartbeat IPC: 1.99584 cumulative IPC: 2.00780 (Simulation time: 0 hr 0 min 43 sec) 
Heartbeat CPU  0 instructions:   33000001 cycles:   16439408 heartbeat IPC: 1.99373 cumulative IPC: 2.00737 (Simulation time: 0 hr 0 min 44 sec) 
Heartbeat CPU  0 instructions:   34000003 cycles:   16927625 heartbeat IPC: 2.04827 cumulative IPC: 2.00855 (Simulation time: 0 hr 0 min 46 sec) 
Heartbeat CPU  0 instructions:   35000000 cycles:   17426636 heartbeat IPC: 2.00396 cumulative IPC: 2.00842 (Simulation time: 0 hr 0 min 47 sec) 
Heartbeat CPU  0 instructions:   36000000 cycles:   17927620 heartbeat IPC: 1.99607 cumulative IPC: 2.00807 (Simulation time: 0 hr 0 min 49 sec) 
Heartbeat CPU  0 instructions:   37000003 cycles:   18428970 heartbeat IPC: 1.99462 cumulative IPC: 2.00771 (Simulation time: 0 hr 0 min 50 sec) 
Heartbeat CPU  0 instructions:   38000003 cycles:   18929387 heartbeat IPC: 1.99833 cumulative IPC: 2.00746 (Simulation time: 0 hr 0 min 51 sec) 
Heartbeat CPU  0 instructions:   39000003 cycles:   19416381 heartbeat IPC: 2.05341 cumulative IPC: 2.00861 (Simulation time: 0 hr 0 min 53 sec) 
Heartbeat CPU  0 instructions:   40000000 cycles:   19917118 heartbeat IPC: 1.99705 cumulative IPC: 2.00832 (Simulation time: 0 hr 0 min 54 sec) 
Heartbeat CPU  0 instructions:   41000001 cycles:   20418712 heartbeat IPC: 1.99365 cumulative IPC: 2.00796 (Simulation time: 0 hr 0 min 55 sec) 
Heartbeat CPU  0 instructions:   42000002 cycles:   20920294 heartbeat IPC: 1.99369 cumulative IPC: 2.00762 (Simulation time: 0 hr 0 min 57 sec) 
Heartbeat CPU  0 instructions:   43000003 cycles:   21411248 heartbeat IPC: 2.03685 cumulative IPC: 2.00829 (Simulation time: 0 hr 0 min 58 sec) 
Heartbeat CPU  0 instructions:   44000000 cycles:   21907767 heartbeat IPC: 2.01402 cumulative IPC: 2.00842 (Simulation time: 0 hr 0 min 59 sec) 
Heartbeat CPU  0 instructions:   45000001 cycles:   22409403 heartbeat IPC: 1.99348 cumulative IPC: 2.00809 (Simulation time: 0 hr 1 min 1 sec) 
Heartbeat CPU  0 instructions:   46000000 cycles:   22910549 heartbeat IPC: 1.99542 cumulative IPC: 2.00781 (Simulation time: 0 hr 1 min 2 sec) 
Heartbeat CPU  0 instructions:   47000002 cycles:   23412114 heartbeat IPC: 1.99376 cumulative IPC: 2.00751 (Simulation time: 0 hr 1 min 3 sec) 
Heartbeat CPU  0 instructions:   48000000 cycles:   23898276 heartbeat IPC: 2.05692 cumulative IPC: 2.00851 (Simulation time: 0 hr 1 min 5 sec) 
Heartbeat CPU  0 instructions:   49000002 cycles:   24399717 heartbeat IPC: 1.99426 cumulative IPC: 2.00822 (Simulation time: 0 hr 1 min 6 sec) 
Heartbeat CPU  0 instructions:   50000003 cycles:   24900702 heartbeat IPC: 1.99607 cumulative IPC: 2.00798 (Simulation time: 0 hr 1 min 8 sec) 
Heartbeat CPU  0 instructions:   51000003 cycles:   25401759 heartbeat IPC: 1.99578 cumulative IPC: 2.00774 (Simulation time: 0 hr 1 min 9 sec) 
Heartbeat CPU  0 instructions:   52000000 cycles:   25894925 heartbeat IPC: 2.02771 cumulative IPC: 2.00812 (Simulation time: 0 hr 1 min 10 sec) 
Heartbeat CPU  0 instructions:   53000001 cycles:   26389608 heartbeat IPC: 2.02150 cumulative IPC: 2.00837 (Simulation time: 0 hr 1 min 12 sec) 
Heartbeat CPU  0 instructions:   54000003 cycles:   26890861 heartbeat IPC: 1.99500 cumulative IPC: 2.00812 (Simulation time: 0 hr 1 min 13 sec) 
Heartbeat CPU  0 instructions:   55000003 cycles:   27392034 heartbeat IPC: 1.99532 cumulative IPC: 2.00788 (Simulation time: 0 hr 1 min 14 sec) 
Heartbeat CPU  0 instructions:   56000000 cycles:   27892977 heartbeat IPC: 1.99623 cumulative IPC: 2.00767 (Simulation time: 0 hr 1 min 16 sec) 
Heartbeat CPU  0 instructions:   57000002 cycles:   28379654 heartbeat IPC: 2.05475 cumulative IPC: 2.00848 (Simulation time: 0 hr 1 min 17 sec) 
Heartbeat CPU  0 instructions:   58000003 cycles:   28880823 heartbeat IPC: 1.99534 cumulative IPC: 2.00825 (Simulation time: 0 hr 1 min 18 sec) 
Heartbeat CPU  0 instructions:   59000001 cycles:   29382038 heartbeat IPC: 1.99515 cumulative IPC: 2.00803 (Simulation time: 0 hr 1 min 20 sec) 
Heartbeat CPU  0 instructions:   60000000 cycles:   29882770 heartbeat IPC: 1.99707 cumulative IPC: 2.00785 (Simulation time: 0 hr 1 min 21 sec) 
Heartbeat CPU  0 instructions:   61000000 cycles:   30378404 heartbeat IPC: 2.01762 cumulative IPC: 2.00801 (Simulation time: 0 hr 1 min 23 sec) 
Heartbeat CPU  0 instructions:   62000001 cycles:   30870435 heartbeat IPC: 2.03239 cumulative IPC: 2.00839 (Simulation time: 0 hr 1 min 24 sec) 
Heartbeat CPU  0 instructions:   63000001 cycles:   31371811 heartbeat IPC: 1.99451 cumulative IPC: 2.00817 (Simulation time: 0 hr 1 min 25 sec) 
Heartbeat CPU  0 instructions:   64000000 cycles:   31873479 heartbeat IPC: 1.99335 cumulative IPC: 2.00794 (Simulation time: 0 hr 1 min 27 sec) 
Heartbeat CPU  0 instructions:   65000000 cycles:   32374764 heartbeat IPC: 1.99487 cumulative IPC: 2.00774 (Simulation time: 0 hr 1 min 28 sec) 
Heartbeat CPU  0 instructions:   66000003 cycles:   32860563 heartbeat IPC: 2.05847 cumulative IPC: 2.00849 (Simulation time: 0 hr 1 min 29 sec) 
Heartbeat CPU  0 instructions:   67000000 cycles:   33362236 heartbeat IPC: 1.99332 cumulative IPC: 2.00826 (Simulation time: 0 hr 1 min 31 sec) 
Heartbeat CPU  0 instructions:   68000000 cycles:   33863650 heartbeat IPC: 1.99436 cumulative IPC: 2.00805 (Simulation time: 0 hr 1 min 32 sec) 
Heartbeat CPU  0 instructions:   69000001 cycles:   34365342 heartbeat IPC: 1.99326 cumulative IPC: 2.00784 (Simulation time: 0 hr 1 min 34 sec) 
Heartbeat CPU  0 instructions:   70000000 cycles:   34862226 heartbeat IPC: 2.01254 cumulative IPC: 2.00790 (Simulation time: 0 hr 1 min 35 sec) 
Heartbeat CPU  0 instructions:   71000001 cycles:   35352382 heartbeat IPC: 2.04017 cumulative IPC: 2.00835 (Simulation time: 0 hr 1 min 36 sec) 
Heartbeat CPU  0 instructions:   72000000 cycles:   35854083 heartbeat IPC: 1.99322 cumulative IPC: 2.00814 (Simulation time: 0 hr 1 min 38 sec) 
Heartbeat CPU  0 instructions:   73000002 cycles:   36354915 heartbeat IPC: 1.99668 cumulative IPC: 2.00798 (Simulation time: 0 hr 1 min 39 sec) 
Heartbeat CPU  0 instructions:   74000003 cycles:   36856453 heartbeat IPC: 1.99387 cumulative IPC: 2.00779 (Simulation time: 0 hr 1 min 40 sec) 
Heartbeat CPU  0 instructions:   75000001 cycles:   37344688 heartbeat IPC: 2.04819 cumulative IPC: 2.00832 (Simulation time: 0 hr 1 min 42 sec) 
Heartbeat CPU  0 instructions:   76000000 cycles:   37843846 heartbeat IPC: 2.00337 cumulative IPC: 2.00825 (Simulation time: 0 hr 1 min 43 sec) 
Heartbeat CPU  0 instructions:   77000000 cycles:   38345329 heartbeat IPC: 1.99409 cumulative IPC: 2.00807 (Simulation time: 0 hr 1 min 45 sec) 
Heartbeat CPU  0 instructions:   78000003 cycles:   38846546 heartbeat IPC: 1.99515 cumulative IPC: 2.00790 (Simulation time: 0 hr 1 min 46 sec) 
Heartbeat CPU  0 instructions:   79000001 cycles:   39346510 heartbeat IPC: 2.00014 cumulative IPC: 2.00780 (Simulation time: 0 hr 1 min 47 sec) 
Heartbeat CPU  0 instructions:   80000000 cycles:   39834668 heartbeat IPC: 2.04852 cumulative IPC: 2.00830 (Simulation time: 0 hr 1 min 49 sec) 
Heartbeat CPU  0 instructions:   81000003 cycles:   40335427 heartbeat IPC: 1.99697 cumulative IPC: 2.00816 (Simulation time: 0 hr 1 min 50 sec) 
Heartbeat CPU  0 instructions:   82000003 cycles:   40836719 heartbeat IPC: 1.99485 cumulative IPC: 2.00800 (Simulation time: 0 hr 1 min 51 sec) 
Heartbeat CPU  0 instructions:   83000001 cycles:   41338236 heartbeat IPC: 1.99395 cumulative IPC: 2.00783 (Simulation time: 0 hr 1 min 53 sec) 
Heartbeat CPU  0 instructions:   84000000 cycles:   41829004 heartbeat IPC: 2.03762 cumulative IPC: 2.00818 (Simulation time: 0 hr 1 min 54 sec) 
Heartbeat CPU  0 instructions:   85000002 cycles:   42326098 heartbeat IPC: 2.01170 cumulative IPC: 2.00822 (Simulation time: 0 hr 1 min 55 sec) 
Heartbeat CPU  0 instructions:   86000002 cycles:   42827694 heartbeat IPC: 1.99364 cumulative IPC: 2.00805 (Simulation time: 0 hr 1 min 57 sec) 
Heartbeat CPU  0 instructions:   87000002 cycles:   43328969 heartbeat IPC: 1.99491 cumulative IPC: 2.00789 (Simulation time: 0 hr 1 min 58 sec) 
Heartbeat CPU  0 instructions:   88000000 cycles:   43830672 heartbeat IPC: 1.99321 cumulative IPC: 2.00773 (Simulation time: 0 hr 1 min 59 sec) 
Heartbeat CPU  0 instructions:   89000003 cycles:   44316910 heartbeat IPC: 2.05661 cumulative IPC: 2.00826 (Simulation time: 0 hr 2 min 1 sec) 
Heartbeat CPU  0 instructions:   90000002 cycles:   44818617 heartbeat IPC: 1.99319 cumulative IPC: 2.00809 (Simulation time: 0 hr 2 min 2 sec) 
Heartbeat CPU  0 instructions:   91000000 cycles:   45319648 heartbeat IPC: 1.99588 cumulative IPC: 2.00796 (Simulation time: 0 hr 2 min 3 sec) 
Heartbeat CPU  0 instructions:   92000000 cycles:   45821078 heartbeat IPC: 1.99430 cumulative IPC: 2.00781 (Simulation time: 0 hr 2 min 5 sec) 
Heartbeat CPU  0 instructions:   93000002 cycles:   46313653 heartbeat IPC: 2.03015 cumulative IPC: 2.00805 (Simulation time: 0 hr 2 min 6 sec) 
Heartbeat CPU  0 instructions:   94000003 cycles:   46808956 heartbeat IPC: 2.01897 cumulative IPC: 2.00816 (Simulation time: 0 hr 2 min 7 sec) 
Heartbeat CPU  0 instructions:   95000003 cycles:   47310187 heartbeat IPC: 1.99509 cumulative IPC: 2.00802 (Simulation time: 0 hr 2 min 9 sec) 
Heartbeat CPU  0 instructions:   96000000 cycles:   47811529 heartbeat IPC: 1.99464 cumulative IPC: 2.00788 (Simulation time: 0 hr 2 min 10 sec) 
Heartbeat CPU  0 instructions:   97000000 cycles:   48312661 heartbeat IPC: 1.99548 cumulative IPC: 2.00776 (Simulation time: 0 hr 2 min 11 sec) 
Heartbeat CPU  0 instructions:   98000000 cycles:   48799086 heartbeat IPC: 2.05582 cumulative IPC: 2.00823 (Simulation time: 0 hr 2 min 13 sec) 
Heartbeat CPU  0 instructions:   99000002 cycles:   49300345 heartbeat IPC: 1.99498 cumulative IPC: 2.00810 (Simulation time: 0 hr 2 min 14 sec) 
Heartbeat CPU  0 instructions:  100000000 cycles:   49801509 heartbeat IPC: 1.99535 cumulative IPC: 2.00797 (Simulation time: 0 hr 2 min 15 sec) 

Warmup complete CPU  0 instructions:  100000003 cycles:   49801510 (Simulation time: 0 hr 2 min 15 sec) 

Heartbeat CPU  0 instructions:  101000001 cycles:   50620141 heartbeat IPC: 1.22155 cumulative IPC: 1.22155 (Simulation time: 0 hr 2 min 17 sec) 
Heartbeat CPU  0 instructions:  102000002 cycles:   51444548 heartbeat IPC: 1.21299 cumulative IPC: 1.21726 (Simulation time: 0 hr 2 min 18 sec) 
Heartbeat CPU  0 instructions:  103000002 cycles:   52276783 heartbeat IPC: 1.20158 cumulative IPC: 1.21199 (Simulation time: 0 hr 2 min 20 sec) 
Heartbeat CPU  0 instructions:  104000000 cycles:   53108977 heartbeat IPC: 1.20164 cumulative IPC: 1.20938 (Simulation time: 0 hr 2 min 21 sec) 
Heartbeat CPU  0 instructions:  105000003 cycles:   53921563 heartbeat IPC: 1.23064 cumulative IPC: 1.21358 (Simulation time: 0 hr 2 min 23 sec) 
Heartbeat CPU  0 instructions:  106000001 cycles:   54740442 heartbeat IPC: 1.22118 cumulative IPC: 1.21484 (Simulation time: 0 hr 2 min 24 sec) 
Heartbeat CPU  0 instructions:  107000002 cycles:   55577184 heartbeat IPC: 1.19511 cumulative IPC: 1.21198 (Simulation time: 0 hr 2 min 26 sec) 
Heartbeat CPU  0 instructions:  108000000 cycles:   56409189 heartbeat IPC: 1.20191 cumulative IPC: 1.21071 (Simulation time: 0 hr 2 min 27 sec) 
Heartbeat CPU  0 instructions:  109000003 cycles:   57243834 heartbeat IPC: 1.19812 cumulative IPC: 1.20930 (Simulation time: 0 hr 2 min 29 sec) 
Heartbeat CPU  0 instructions:  110000001 cycles:   58066255 heartbeat IPC: 1.21592 cumulative IPC: 1.20996 (Simulation time: 0 hr 2 min 30 sec) 
Heartbeat CPU  0 instructions:  111000003 cycles:   58883621 heartbeat IPC: 1.22344 cumulative IPC: 1.21117 (Simulation time: 0 hr 2 min 32 sec) 
Heartbeat CPU  0 instructions:  112000000 cycles:   59719513 heartbeat IPC: 1.19632 cumulative IPC: 1.20992 (Simulation time: 0 hr 2 min 33 sec) 
Heartbeat CPU  0 instructions:  113000002 cycles:   60547564 heartbeat IPC: 1.20766 cumulative IPC: 1.20975 (Simulation time: 0 hr 2 min 35 sec) 
Heartbeat CPU  0 instructions:  114000002 cycles:   61377859 heartbeat IPC: 1.20439 cumulative IPC: 1.20936 (Simulation time: 0 hr 2 min 36 sec) 
Heartbeat CPU  0 instructions:  115000000 cycles:   62202026 heartbeat IPC: 1.21334 cumulative IPC: 1.20963 (Simulation time: 0 hr 2 min 38 sec) 
Heartbeat CPU  0 instructions:  116000000 cycles:   63026229 heartbeat IPC: 1.21329 cumulative IPC: 1.20986 (Simulation time: 0 hr 2 min 39 sec) 
Heartbeat CPU  0 instructions:  117000002 cycles:   63843483 heartbeat IPC: 1.22361 cumulative IPC: 1.21066 (Simulation time: 0 hr 2 min 41 sec) 
Heartbeat CPU  0 instructions:  118000001 cycles:   64663908 heartbeat IPC: 1.21888 cumulative IPC: 1.21111 (Simulation time: 0 hr 2 min 42 sec) 
Heartbeat CPU  0 instructions:  119000002 cycles:   65486992 heartbeat IPC: 1.21494 cumulative IPC: 1.21131 (Simulation time: 0 hr 2 min 44 sec) 
Heartbeat CPU  0 instructions:  120000000 cycles:   66315093 heartbeat IPC: 1.20758 cumulative IPC: 1.21112 (Simulation time: 0 hr 2 min 45 sec) 
Heartbeat CPU  0 instructions:  121000001 cycles:   67132821 heartbeat IPC: 1.22290 cumulative IPC: 1.21168 (Simulation time: 0 hr 2 min 47 sec) 
Heartbeat CPU  0 instructions:  122000002 cycles:   67950704 heartbeat IPC: 1.22267 cumulative IPC: 1.21218 (Simulation time: 0 hr 2 min 48 sec) 
Heartbeat CPU  0 instructions:  123000001 cycles:   68771740 heartbeat IPC: 1.21797 cumulative IPC: 1.21243 (Simulation time: 0 hr 2 min 50 sec) 
Heartbeat CPU  0 instructions:  124000000 cycles:   69601548 heartbeat IPC: 1.20510 cumulative IPC: 1.21212 (Simulation time: 0 hr 2 min 51 sec) 
Heartbeat CPU  0 instructions:  125000000 cycles:   70440099 heartbeat IPC: 1.19253 cumulative IPC: 1.21132 (Simulation time: 0 hr 2 min 53 sec) 
Heartbeat CPU  0 instructions:  126000000 cycles:   71249937 heartbeat IPC: 1.23481 cumulative IPC: 1.21221 (Simulation time: 0 hr 2 min 54 sec) 
Heartbeat CPU  0 instructions:  127000000 cycles:   72066069 heartbeat IPC: 1.22529 cumulative IPC: 1.21269 (Simulation time: 0 hr 2 min 56 sec) 
Heartbeat CPU  0 instructions:  128000000 cycles:   72885233 heartbeat IPC: 1.22076 cumulative IPC: 1.21298 (Simulation time: 0 hr 2 min 57 sec) 
Heartbeat CPU  0 instructions:  129000002 cycles:   73711481 heartbeat IPC: 1.21029 cumulative IPC: 1.21288 (Simulation time: 0 hr 2 min 59 sec) 
Heartbeat CPU  0 instructions:  130000002 cycles:   74563307 heartbeat IPC: 1.17395 cumulative IPC: 1.21154 (Simulation time: 0 hr 3 min 0 sec) 
Heartbeat CPU  0 instructions:  131000002 cycles:   75381894 heartbeat IPC: 1.22162 cumulative IPC: 1.21187 (Simulation time: 0 hr 3 min 2 sec) 
Heartbeat CPU  0 instructions:  132000000 cycles:   76204375 heartbeat IPC: 1.21583 cumulative IPC: 1.21199 (Simulation time: 0 hr 3 min 3 sec) 
Heartbeat CPU  0 instructions:  133000000 cycles:   77028862 heartbeat IPC: 1.21288 cumulative IPC: 1.21202 (Simulation time: 0 hr 3 min 5 sec) 
Heartbeat CPU  0 instructions:  134000000 cycles:   77864555 heartbeat IPC: 1.19661 cumulative IPC: 1.21156 (Simulation time: 0 hr 3 min 6 sec) 
Heartbeat CPU  0 instructions:  135000002 cycles:   78709553 heartbeat IPC: 1.18344 cumulative IPC: 1.21074 (Simulation time: 0 hr 3 min 8 sec) 
Heartbeat CPU  0 instructions:  136000000 cycles:   79529224 heartbeat IPC: 1.22000 cumulative IPC: 1.21099 (Simulation time: 0 hr 3 min 9 sec) 
Heartbeat CPU  0 instructions:  137000001 cycles:   80348673 heartbeat IPC: 1.22033 cumulative IPC: 1.21124 (Simulation time: 0 hr 3 min 11 sec) 
Heartbeat CPU  0 instructions:  138000003 cycles:   81173086 heartbeat IPC: 1.21299 cumulative IPC: 1.21129 (Simulation time: 0 hr 3 min 12 sec) 
Heartbeat CPU  0 instructions:  139000003 cycles:   82007470 heartbeat IPC: 1.19849 cumulative IPC: 1.21096 (Simulation time: 0 hr 3 min 14 sec) 
Heartbeat CPU  0 instructions:  140000000 cycles:   82845796 heartbeat IPC: 1.19285 cumulative IPC: 1.21050 (Simulation time: 0 hr 3 min 15 sec) 
Heartbeat CPU  0 instructions:  141000003 cycles:   83665006 heartbeat IPC: 1.22069 cumulative IPC: 1.21074 (Simulation time: 0 hr 3 min 17 sec) 
Heartbeat CPU  0 instructions:  142000000 cycles:   84477976 heartbeat IPC: 1.23005 cumulative IPC: 1.21120 (Simulation time: 0 hr 3 min 18 sec) 
Heartbeat CPU  0 instructions:  143000000 cycles:   85301329 heartbeat IPC: 1.21455 cumulative IPC: 1.21127 (Simulation time: 0 hr 3 min 20 sec) 
Heartbeat CPU  0 instructions:  144000000 cycles:   86132105 heartbeat IPC: 1.20369 cumulative IPC: 1.21110 (Simulation time: 0 hr 3 min 21 sec) 
Heartbeat CPU  0 instructions:  145000002 cycles:   86971566 heartbeat IPC: 1.19124 cumulative IPC: 1.21065 (Simulation time: 0 hr 3 min 23 sec) 
Heartbeat CPU  0 instructions:  146000002 cycles:   87794302 heartbeat IPC: 1.21546 cumulative IPC: 1.21076 (Simulation time: 0 hr 3 min 24 sec) 
Heartbeat CPU  0 instructions:  147000002 cycles:   88649774 heartbeat IPC: 1.16895 cumulative IPC: 1.20984 (Simulation time: 0 hr 3 min 26 sec) 
Heartbeat CPU  0 instructions:  148000000 cycles:   89678066 heartbeat IPC: 0.97248 cumulative IPC: 1.20371 (Simulation time: 0 hr 3 min 27 sec) 
Heartbeat CPU  0 instructions:  149000002 cycles:   90703688 heartbeat IPC: 0.97502 cumulative IPC: 1.19798 (Simulation time: 0 hr 3 min 29 sec) 
Heartbeat CPU  0 instructions:  150000002 cycles:   91731780 heartbeat IPC: 0.97268 cumulative IPC: 1.19246 (Simulation time: 0 hr 3 min 31 sec) 
Heartbeat CPU  0 instructions:  151000000 cycles:   92761789 heartbeat IPC: 0.97086 cumulative IPC: 1.18714 (Simulation time: 0 hr 3 min 32 sec) 
Heartbeat CPU  0 instructions:  152000000 cycles:   93793801 heartbeat IPC: 0.96898 cumulative IPC: 1.18203 (Simulation time: 0 hr 3 min 34 sec) 
Heartbeat CPU  0 instructions:  153000003 cycles:   94823365 heartbeat IPC: 0.97129 cumulative IPC: 1.17721 (Simulation time: 0 hr 3 min 35 sec) 
Heartbeat CPU  0 instructions:  154000002 cycles:   95855442 heartbeat IPC: 0.96892 cumulative IPC: 1.17254 (Simulation time: 0 hr 3 min 37 sec) 
Heartbeat CPU  0 instructions:  155000003 cycles:   96887362 heartbeat IPC: 0.96907 cumulative IPC: 1.16808 (Simulation time: 0 hr 3 min 38 sec) 
Heartbeat CPU  0 instructions:  156000000 cycles:   97925197 heartbeat IPC: 0.96354 cumulative IPC: 1.16367 (Simulation time: 0 hr 3 min 40 sec) 
Heartbeat CPU  0 instructions:  157000003 cycles:   98970917 heartbeat IPC: 0.95628 cumulative IPC: 1.15926 (Simulation time: 0 hr 3 min 42 sec) 
Heartbeat CPU  0 instructions:  158000000 cycles:  100010021 heartbeat IPC: 0.96236 cumulative IPC: 1.15518 (Simulation time: 0 hr 3 min 43 sec) 
Heartbeat CPU  0 instructions:  159000003 cycles:  101062854 heartbeat IPC: 0.94982 cumulative IPC: 1.15096 (Simulation time: 0 hr 3 min 45 sec) 
Heartbeat CPU  0 instructions:  160000000 cycles:  102109729 heartbeat IPC: 0.95522 cumulative IPC: 1.14705 (Simulation time: 0 hr 3 min 47 sec) 
Heartbeat CPU  0 instructions:  161000000 cycles:  103149997 heartbeat IPC: 0.96129 cumulative IPC: 1.14343 (Simulation time: 0 hr 3 min 48 sec) 
Heartbeat CPU  0 instructions:  162000000 cycles:  104192284 heartbeat IPC: 0.95943 cumulative IPC: 1.13990 (Simulation time: 0 hr 3 min 50 sec) 
Heartbeat CPU  0 instructions:  163000002 cycles:  105237020 heartbeat IPC: 0.95718 cumulative IPC: 1.13646 (Simulation time: 0 hr 3 min 51 sec) 
Heartbeat CPU  0 instructions:  164000000 cycles:  106270661 heartbeat IPC: 0.96745 cumulative IPC: 1.13336 (Simulation time: 0 hr 3 min 53 sec) 
Heartbeat CPU  0 instructions:  165000003 cycles:  107306042 heartbeat IPC: 0.96583 cumulative IPC: 1.13035 (Simulation time: 0 hr 3 min 55 sec) 
Heartbeat CPU  0 instructions:  166000001 cycles:  108348020 heartbeat IPC: 0.95971 cumulative IPC: 1.12731 (Simulation time: 0 hr 3 min 56 sec) 
Heartbeat CPU  0 instructions:  167000001 cycles:  109391846 heartbeat IPC: 0.95801 cumulative IPC: 1.12434 (Simulation time: 0 hr 3 min 58 sec) 
Heartbeat CPU  0 instructions:  168000000 cycles:  110447311 heartbeat IPC: 0.94745 cumulative IPC: 1.12126 (Simulation time: 0 hr 3 min 59 sec) 
Heartbeat CPU  0 instructions:  169000002 cycles:  111486751 heartbeat IPC: 0.96206 cumulative IPC: 1.11858 (Simulation time: 0 hr 4 min 1 sec) 
Heartbeat CPU  0 instructions:  170000002 cycles:  112525463 heartbeat IPC: 0.96273 cumulative IPC: 1.11600 (Simulation time: 0 hr 4 min 2 sec) 
Heartbeat CPU  0 instructions:  171000002 cycles:  113564778 heartbeat IPC: 0.96217 cumulative IPC: 1.11349 (Simulation time: 0 hr 4 min 4 sec) 
Heartbeat CPU  0 instructions:  172000000 cycles:  114595459 heartbeat IPC: 0.97023 cumulative IPC: 1.11121 (Simulation time: 0 hr 4 min 6 sec) 
Heartbeat CPU  0 instructions:  173000002 cycles:  115627697 heartbeat IPC: 0.96877 cumulative IPC: 1.10898 (Simulation time: 0 hr 4 min 7 sec) 
Heartbeat CPU  0 instructions:  174000003 cycles:  116668434 heartbeat IPC: 0.96086 cumulative IPC: 1.10668 (Simulation time: 0 hr 4 min 9 sec) 
Heartbeat CPU  0 instructions:  175000002 cycles:  117703610 heartbeat IPC: 0.96602 cumulative IPC: 1.10453 (Simulation time: 0 hr 4 min 10 sec) 
Heartbeat CPU  0 instructions:  176000000 cycles:  118740950 heartbeat IPC: 0.96400 cumulative IPC: 1.10242 (Simulation time: 0 hr 4 min 12 sec) 
Heartbeat CPU  0 instructions:  177000003 cycles:  119781797 heartbeat IPC: 0.96076 cumulative IPC: 1.10031 (Simulation time: 0 hr 4 min 14 sec) 
Heartbeat CPU  0 instructions:  178000000 cycles:  120818781 heartbeat IPC: 0.96433 cumulative IPC: 1.09832 (Simulation time: 0 hr 4 min 15 sec) 
Heartbeat CPU  0 instructions:  179000002 cycles:  121860636 heartbeat IPC: 0.95983 cumulative IPC: 1.09632 (Simulation time: 0 hr 4 min 17 sec) 
Heartbeat CPU  0 instructions:  180000000 cycles:  122920713 heartbeat IPC: 0.94333 cumulative IPC: 1.09410 (Simulation time: 0 hr 4 min 18 sec) 
Heartbeat CPU  0 instructions:  181000003 cycles:  123971707 heartbeat IPC: 0.95148 cumulative IPC: 1.09208 (Simulation time: 0 hr 4 min 20 sec) 
Heartbeat CPU  0 instructions:  182000002 cycles:  125016175 heartbeat IPC: 0.95742 cumulative IPC: 1.09021 (Simulation time: 0 hr 4 min 22 sec) 
Heartbeat CPU  0 instructions:  183000000 cycles:  126057261 heartbeat IPC: 0.96053 cumulative IPC: 1.08844 (Simulation time: 0 hr 4 min 23 sec) 
Heartbeat CPU  0 instructions:  184000000 cycles:  127095399 heartbeat IPC: 0.96326 cumulative IPC: 1.08676 (Simulation time: 0 hr 4 min 25 sec) 
Heartbeat CPU  0 instructions:  185000003 cycles:  128137331 heartbeat IPC: 0.95976 cumulative IPC: 1.08507 (Simulation time: 0 hr 4 min 26 sec) 
Heartbeat CPU  0 instructions:  186000001 cycles:  129181647 heartbeat IPC: 0.95756 cumulative IPC: 1.08339 (Simulation time: 0 hr 4 min 28 sec) 
Heartbeat CPU  0 instructions:  187000002 cycles:  130230246 heartbeat IPC: 0.95365 cumulative IPC: 1.08170 (Simulation time: 0 hr 4 min 30 sec) 
Heartbeat CPU  0 instructions:  188000000 cycles:  131278578 heartbeat IPC: 0.95389 cumulative IPC: 1.08006 (Simulation time: 0 hr 4 min 31 sec) 
Heartbeat CPU  0 instructions:  189000001 cycles:  132335214 heartbeat IPC: 0.94640 cumulative IPC: 1.07835 (Simulation time: 0 hr 4 min 33 sec) 
Heartbeat CPU  0 instructions:  190000003 cycles:  133376250 heartbeat IPC: 0.96058 cumulative IPC: 1.07688 (Simulation time: 0 hr 4 min 34 sec) 
Heartbeat CPU  0 instructions:  191000002 cycles:  134410161 heartbeat IPC: 0.96720 cumulative IPC: 1.07554 (Simulation time: 0 hr 4 min 36 sec) 
Heartbeat CPU  0 instructions:  192000000 cycles:  135432042 heartbeat IPC: 0.97859 cumulative IPC: 1.07438 (Simulation time: 0 hr 4 min 38 sec) 
Heartbeat CPU  0 instructions:  193000003 cycles:  136339702 heartbeat IPC: 1.10174 cumulative IPC: 1.07467 (Simulation time: 0 hr 4 min 39 sec) 
Heartbeat CPU  0 instructions:  194000001 cycles:  139424415 heartbeat IPC: 0.32418 cumulative IPC: 1.04884 (Simulation time: 0 hr 4 min 42 sec) 
Heartbeat CPU  0 instructions:  195000000 cycles:  142274966 heartbeat IPC: 0.35081 cumulative IPC: 1.02732 (Simulation time: 0 hr 4 min 45 sec) 
Heartbeat CPU  0 instructions:  196000000 cycles:  143000284 heartbeat IPC: 1.37871 cumulative IPC: 1.03006 (Simulation time: 0 hr 4 min 46 sec) 
Heartbeat CPU  0 instructions:  197000000 cycles:  143710496 heartbeat IPC: 1.40803 cumulative IPC: 1.03291 (Simulation time: 0 hr 4 min 48 sec) 
Heartbeat CPU  0 instructions:  198000003 cycles:  144420430 heartbeat IPC: 1.40859 cumulative IPC: 1.03573 (Simulation time: 0 hr 4 min 49 sec) 
Heartbeat CPU  0 instructions:  199000002 cycles:  145145053 heartbeat IPC: 1.38003 cumulative IPC: 1.03835 (Simulation time: 0 hr 4 min 51 sec) 
Heartbeat CPU  0 instructions:  200000000 cycles:  145867793 heartbeat IPC: 1.38362 cumulative IPC: 1.04095 (Simulation time: 0 hr 4 min 53 sec) 
Finished CPU 0 instructions: 100000000 cycles: 96066312 cumulative IPC: 1.04095 (Simulation time: 0 hr 4 min 53 sec) 

ChampSim completed all CPUs

[ROI Statistics]
Core_0_instructions 100000000
Core_0_cycles 96066312
Core_0_IPC 1.04095

Core_0_branch_prediction_accuracy 99.15344
Core_0_branch_MPKI 0.35029
Core_0_average_ROB_occupancy_at_mispredict 249.70887

Core_0_L1D_total_access 33132227
Core_0_L1D_total_hit 31271960
Core_0_L1D_total_miss 1860267
Core_0_L1D_loads 23474770
Core_0_L1D_load_hit 23178096
Core_0_L1D_load_miss 296674
Core_0_L1D_RFOs 4578752
Core_0_L1D_RFO_hit 4270785
Core_0_L1D_RFO_miss 307967
Core_0_L1D_prefetches 5078705
Core_0_L1D_prefetch_hit 3823079
Core_0_L1D_prefetch_miss 1255626
Core_0_L1D_writebacks 0
Core_0_L1D_writeback_hit 0
Core_0_L1D_writeback_miss 0
Core_0_L1D_prefetch_requested 10622945
Core_0_L1D_prefetch_issued 10427641
Core_0_L1D_prefetch_useful 1627595
Core_0_L1D_prefetch_useless 1103466
Core_0_L1D_prefetch_late 60475
Core_0_L1D_average_miss_latency 3660579.33436

Core_0_L1I_total_access 22542056
Core_0_L1I_total_hit 22541836
Core_0_L1I_total_miss 220
Core_0_L1I_loads 22542056
Core_0_L1I_load_hit 22541836
Core_0_L1I_load_miss 220
Core_0_L1I_RFOs 0
Core_0_L1I_RFO_hit 0
Core_0_L1I_RFO_miss 0
Core_0_L1I_prefetches 0
Core_0_L1I_prefetch_hit 0
Core_0_L1I_prefetch_miss 0
Core_0_L1I_writebacks 0
Core_0_L1I_writeback_hit 0
Core_0_L1I_writeback_miss 0
Core_0_L1I_prefetch_requested 0
Core_0_L1I_prefetch_issued 0
Core_0_L1I_prefetch_useful 0
Core_0_L1I_prefetch_useless 0
Core_0_L1I_prefetch_late 0
Core_0_L1I_average_miss_latency 252.93182

Core_0_L2C_total_access 4153040
Core_0_L2C_total_hit 3048316
Core_0_L2C_total_miss 1104724
Core_0_L2C_loads 237965
Core_0_L2C_load_hit 197028
Core_0_L2C_load_miss 40937
Core_0_L2C_RFOs 306131
Core_0_L2C_RFO_hit 141058
Core_0_L2C_RFO_miss 165073
Core_0_L2C_prefetches 3042946
Core_0_L2C_prefetch_hit 2144352
Core_0_L2C_prefetch_miss 898594
Core_0_L2C_writebacks 565998
Core_0_L2C_writeback_hit 565878
Core_0_L2C_writeback_miss 120
Core_0_L2C_prefetch_requested 5703237
Core_0_L2C_prefetch_issued 5685957
Core_0_L2C_prefetch_useful 185795
Core_0_L2C_prefetch_useless 1351049
Core_0_L2C_prefetch_late 0
Core_0_L2C_average_miss_latency 200.33455

Core_0_LLC_total_access 1928407
Core_0_LLC_total_hit 816655
Core_0_LLC_total_miss 1111752
Core_0_LLC_loads 40937
Core_0_LLC_load_hit 16410
Core_0_LLC_load_miss 24527
Core_0_LLC_RFOs 165072
Core_0_LLC_RFO_hit 27988
Core_0_LLC_RFO_miss 137084
Core_0_LLC_prefetches 1310380
Core_0_LLC_prefetch_hit 487321
Core_0_LLC_prefetch_miss 823059
Core_0_LLC_writebacks 412018
Core_0_LLC_writeback_hit 284936
Core_0_LLC_writeback_miss 127082
Core_0_LLC_prefetch_requested 1430448
Core_0_LLC_prefetch_issued 1406271
Core_0_LLC_prefetch_useful 51763
Core_0_LLC_prefetch_useless 1115065
Core_0_LLC_prefetch_late 48
Core_0_LLC_average_miss_latency 273.29633

Core_0_major_page_fault 0
Core_0_minor_page_fault 15627


CPU 0 L2C PC-based stride prefetcher final stats
LLC Next Line Prefetcher Final Stats: none
Channel_0_RQ_row_buffer_hit 326648
Channel_0_RQ_row_buffer_miss 658008
Channel_0_WQ_row_buffer_hit 61329
Channel_0_WQ_row_buffer_miss 328915
Channel_0_WQ_full 0
Channel_0_dbus_congested 580437

avg_congested_cycle 10
