*************************************************
   ChampSim Multicore Out-of-Order Simulator
   Last compiled: Jan 18 2024 13:33:55
*************************************************

trace_0 ./traces/450.soplex-247B.champsimtrace.xz
CPU 0 L2C IP-based stride prefetcher
Initialize HawkEye state
LLC Next Line Prefetcher
warmup_instructions 100000000
simulation_instructions 100000000
champsim_seed 223

num_cpus 1
cpu_freq 4000
dram_io_freq 2400
page_size 4096
block_size 64
max_read_per_cycle 8
max_fill_per_cycle 1
dram_channels 1
dram_ranks 1
dram_banks 8
dram_rows 65536
dram_columns 128
dram_row_size 8
dram_size 4096
dram_pages 1048576

fetch_width 6
decode_width 6
exec_width 4
lq_width 2
sq_width 2
retire_width 4
scheduler_size 128
branch_mispredict_penalty 20
rob_size 256
lq_size 72
sq_size 56
num_instr_destinations_sparc 4
num_instr_destinations 2
num_instr_sources 4

itlb_set 16
itlb_way 8
itlb_rq_size 16
itlb_wq_size 16
itlb_pq_size 0
itlb_mshr_size 8
itlb_latency 1

dtlb_set 16
dtlb_way 4
dtlb_rq_size 16
dtlb_wq_size 16
dtlb_pq_size 0
dtlb_mshr_size 8
dtlb_latency 1

stlb_set 128
stlb_way 12
stlb_rq_size 32
stlb_wq_size 32
stlb_pq_size 0
stlb_mshr_size 16
stlb_latency 8

l1i_size 32
l1i_set 64
l1i_way 8
l1i_rq_size 64
l1i_wq_size 64
l1i_pq_size 8
l1i_mshr_size 8
l1i_latency 1

l1d_size 32
l1d_set 64
l1d_way 8
l1d_rq_size 64
l1d_wq_size 64
l1d_pq_size 8
l1d_mshr_size 16
l1d_latency 4

l2c_size 512
l2c_set 1024
l2c_way 8
l2c_rq_size 32
l2c_wq_size 32
l2c_pq_size 16
l2c_mshr_size 32
l2c_latency 10

llc_size 2048
llc_set 2048
llc_way 16
llc_rq_size 32
llc_wq_size 32
llc_pq_size 32
llc_mshr_size 64
llc_latency 20

dram_channel_width 8
dram_wq_size 64
dram_rq_size 64
tRP 15
tRCD 15
tCAS 12.5
dram_dbus_turn_around_time 30
dram_write_high_wm 56
dram_write_low_wm 48
min_dram_writes_per_switch 16
dram_mtps 2400
dram_dbus_return_time 13


Heartbeat CPU  0 instructions:    1000002 cycles:     755056 heartbeat IPC: 1.32441 cumulative IPC: 1.32441 (Simulation time: 0 hr 0 min 1 sec) 
Heartbeat CPU  0 instructions:    2000001 cycles:    1394145 heartbeat IPC: 1.56473 cumulative IPC: 1.43457 (Simulation time: 0 hr 0 min 3 sec) 
Heartbeat CPU  0 instructions:    3000001 cycles:    2118747 heartbeat IPC: 1.38007 cumulative IPC: 1.41593 (Simulation time: 0 hr 0 min 4 sec) 
Heartbeat CPU  0 instructions:    4000000 cycles:    2659803 heartbeat IPC: 1.84824 cumulative IPC: 1.50387 (Simulation time: 0 hr 0 min 5 sec) 
Heartbeat CPU  0 instructions:    5000000 cycles:    3565351 heartbeat IPC: 1.10430 cumulative IPC: 1.40239 (Simulation time: 0 hr 0 min 6 sec) 
Heartbeat CPU  0 instructions:    6000001 cycles:    4453125 heartbeat IPC: 1.12641 cumulative IPC: 1.34737 (Simulation time: 0 hr 0 min 8 sec) 
Heartbeat CPU  0 instructions:    7000000 cycles:    5247819 heartbeat IPC: 1.25834 cumulative IPC: 1.33389 (Simulation time: 0 hr 0 min 9 sec) 
Heartbeat CPU  0 instructions:    8000000 cycles:    5936236 heartbeat IPC: 1.45261 cumulative IPC: 1.34766 (Simulation time: 0 hr 0 min 10 sec) 
Heartbeat CPU  0 instructions:    9000001 cycles:    6550743 heartbeat IPC: 1.62732 cumulative IPC: 1.37389 (Simulation time: 0 hr 0 min 12 sec) 
Heartbeat CPU  0 instructions:   10000000 cycles:    7088270 heartbeat IPC: 1.86037 cumulative IPC: 1.41078 (Simulation time: 0 hr 0 min 13 sec) 
Heartbeat CPU  0 instructions:   11000001 cycles:    7674001 heartbeat IPC: 1.70727 cumulative IPC: 1.43341 (Simulation time: 0 hr 0 min 14 sec) 
Heartbeat CPU  0 instructions:   12000000 cycles:    8342873 heartbeat IPC: 1.49505 cumulative IPC: 1.43835 (Simulation time: 0 hr 0 min 15 sec) 
Heartbeat CPU  0 instructions:   13000000 cycles:    9220564 heartbeat IPC: 1.13935 cumulative IPC: 1.40989 (Simulation time: 0 hr 0 min 16 sec) 
Heartbeat CPU  0 instructions:   14000002 cycles:    9966395 heartbeat IPC: 1.34079 cumulative IPC: 1.40472 (Simulation time: 0 hr 0 min 17 sec) 
Heartbeat CPU  0 instructions:   15000002 cycles:   10549731 heartbeat IPC: 1.71428 cumulative IPC: 1.42184 (Simulation time: 0 hr 0 min 18 sec) 
Heartbeat CPU  0 instructions:   16000000 cycles:   11068955 heartbeat IPC: 1.92595 cumulative IPC: 1.44548 (Simulation time: 0 hr 0 min 19 sec) 
Heartbeat CPU  0 instructions:   17000000 cycles:   11873843 heartbeat IPC: 1.24241 cumulative IPC: 1.43172 (Simulation time: 0 hr 0 min 20 sec) 
Heartbeat CPU  0 instructions:   18000001 cycles:   12458352 heartbeat IPC: 1.71084 cumulative IPC: 1.44481 (Simulation time: 0 hr 0 min 22 sec) 
Heartbeat CPU  0 instructions:   19000001 cycles:   12988545 heartbeat IPC: 1.88611 cumulative IPC: 1.46283 (Simulation time: 0 hr 0 min 23 sec) 
Heartbeat CPU  0 instructions:   20000000 cycles:   13578505 heartbeat IPC: 1.69503 cumulative IPC: 1.47292 (Simulation time: 0 hr 0 min 24 sec) 
Heartbeat CPU  0 instructions:   21000001 cycles:   14228874 heartbeat IPC: 1.53759 cumulative IPC: 1.47587 (Simulation time: 0 hr 0 min 26 sec) 
Heartbeat CPU  0 instructions:   22000003 cycles:   15104599 heartbeat IPC: 1.14191 cumulative IPC: 1.45651 (Simulation time: 0 hr 0 min 27 sec) 
Heartbeat CPU  0 instructions:   23000001 cycles:   15868915 heartbeat IPC: 1.30836 cumulative IPC: 1.44937 (Simulation time: 0 hr 0 min 28 sec) 
Heartbeat CPU  0 instructions:   24000000 cycles:   16450832 heartbeat IPC: 1.71846 cumulative IPC: 1.45889 (Simulation time: 0 hr 0 min 29 sec) 
Heartbeat CPU  0 instructions:   25000000 cycles:   16982791 heartbeat IPC: 1.87984 cumulative IPC: 1.47208 (Simulation time: 0 hr 0 min 30 sec) 
Heartbeat CPU  0 instructions:   26000001 cycles:   17777726 heartbeat IPC: 1.25797 cumulative IPC: 1.46250 (Simulation time: 0 hr 0 min 31 sec) 
Heartbeat CPU  0 instructions:   27000003 cycles:   18330428 heartbeat IPC: 1.80930 cumulative IPC: 1.47296 (Simulation time: 0 hr 0 min 33 sec) 
Heartbeat CPU  0 instructions:   28000000 cycles:   18876783 heartbeat IPC: 1.83031 cumulative IPC: 1.48330 (Simulation time: 0 hr 0 min 34 sec) 
Heartbeat CPU  0 instructions:   29000002 cycles:   19429837 heartbeat IPC: 1.80815 cumulative IPC: 1.49255 (Simulation time: 0 hr 0 min 35 sec) 
Heartbeat CPU  0 instructions:   30000001 cycles:   20006345 heartbeat IPC: 1.73458 cumulative IPC: 1.49952 (Simulation time: 0 hr 0 min 36 sec) 
Heartbeat CPU  0 instructions:   31000002 cycles:   20871685 heartbeat IPC: 1.15562 cumulative IPC: 1.48527 (Simulation time: 0 hr 0 min 37 sec) 
Heartbeat CPU  0 instructions:   32000000 cycles:   21689708 heartbeat IPC: 1.22246 cumulative IPC: 1.47535 (Simulation time: 0 hr 0 min 38 sec) 
Heartbeat CPU  0 instructions:   33000000 cycles:   22280235 heartbeat IPC: 1.69340 cumulative IPC: 1.48113 (Simulation time: 0 hr 0 min 39 sec) 
Heartbeat CPU  0 instructions:   34000000 cycles:   22877947 heartbeat IPC: 1.67305 cumulative IPC: 1.48615 (Simulation time: 0 hr 0 min 40 sec) 
Heartbeat CPU  0 instructions:   35000002 cycles:   23600270 heartbeat IPC: 1.38442 cumulative IPC: 1.48303 (Simulation time: 0 hr 0 min 41 sec) 
Heartbeat CPU  0 instructions:   36000000 cycles:   24181172 heartbeat IPC: 1.72146 cumulative IPC: 1.48876 (Simulation time: 0 hr 0 min 43 sec) 
Heartbeat CPU  0 instructions:   37000001 cycles:   24712571 heartbeat IPC: 1.88183 cumulative IPC: 1.49721 (Simulation time: 0 hr 0 min 44 sec) 
Heartbeat CPU  0 instructions:   38000002 cycles:   25276828 heartbeat IPC: 1.77224 cumulative IPC: 1.50335 (Simulation time: 0 hr 0 min 45 sec) 
Heartbeat CPU  0 instructions:   39000000 cycles:   25847154 heartbeat IPC: 1.75338 cumulative IPC: 1.50887 (Simulation time: 0 hr 0 min 47 sec) 
Heartbeat CPU  0 instructions:   40000000 cycles:   26617473 heartbeat IPC: 1.29816 cumulative IPC: 1.50277 (Simulation time: 0 hr 0 min 48 sec) 
Heartbeat CPU  0 instructions:   41000001 cycles:   27480229 heartbeat IPC: 1.15908 cumulative IPC: 1.49198 (Simulation time: 0 hr 0 min 48 sec) 
Heartbeat CPU  0 instructions:   42000001 cycles:   28129195 heartbeat IPC: 1.54091 cumulative IPC: 1.49311 (Simulation time: 0 hr 0 min 49 sec) 
Heartbeat CPU  0 instructions:   43000000 cycles:   28742277 heartbeat IPC: 1.63110 cumulative IPC: 1.49605 (Simulation time: 0 hr 0 min 50 sec) 
Heartbeat CPU  0 instructions:   44000000 cycles:   29366538 heartbeat IPC: 1.60189 cumulative IPC: 1.49830 (Simulation time: 0 hr 0 min 52 sec) 
Heartbeat CPU  0 instructions:   45000000 cycles:   30077668 heartbeat IPC: 1.40621 cumulative IPC: 1.49613 (Simulation time: 0 hr 0 min 53 sec) 
Heartbeat CPU  0 instructions:   46000001 cycles:   30605654 heartbeat IPC: 1.89399 cumulative IPC: 1.50299 (Simulation time: 0 hr 0 min 55 sec) 
Heartbeat CPU  0 instructions:   47000000 cycles:   31159856 heartbeat IPC: 1.80439 cumulative IPC: 1.50835 (Simulation time: 0 hr 0 min 56 sec) 
Heartbeat CPU  0 instructions:   48000000 cycles:   31737444 heartbeat IPC: 1.73134 cumulative IPC: 1.51241 (Simulation time: 0 hr 0 min 57 sec) 
Heartbeat CPU  0 instructions:   49000001 cycles:   32470706 heartbeat IPC: 1.36377 cumulative IPC: 1.50905 (Simulation time: 0 hr 0 min 58 sec) 
Heartbeat CPU  0 instructions:   50000001 cycles:   33335868 heartbeat IPC: 1.15585 cumulative IPC: 1.49989 (Simulation time: 0 hr 0 min 59 sec) 
Heartbeat CPU  0 instructions:   51000003 cycles:   34027853 heartbeat IPC: 1.44512 cumulative IPC: 1.49877 (Simulation time: 0 hr 1 min 0 sec) 
Heartbeat CPU  0 instructions:   52000000 cycles:   34610178 heartbeat IPC: 1.71725 cumulative IPC: 1.50245 (Simulation time: 0 hr 1 min 1 sec) 
Heartbeat CPU  0 instructions:   53000000 cycles:   35185899 heartbeat IPC: 1.73695 cumulative IPC: 1.50629 (Simulation time: 0 hr 1 min 2 sec) 
Heartbeat CPU  0 instructions:   54000002 cycles:   35937669 heartbeat IPC: 1.33020 cumulative IPC: 1.50260 (Simulation time: 0 hr 1 min 4 sec) 
Heartbeat CPU  0 instructions:   55000001 cycles:   36494453 heartbeat IPC: 1.79603 cumulative IPC: 1.50708 (Simulation time: 0 hr 1 min 5 sec) 
Heartbeat CPU  0 instructions:   56000000 cycles:   37041880 heartbeat IPC: 1.82673 cumulative IPC: 1.51180 (Simulation time: 0 hr 1 min 6 sec) 
Heartbeat CPU  0 instructions:   57000001 cycles:   37621341 heartbeat IPC: 1.72574 cumulative IPC: 1.51510 (Simulation time: 0 hr 1 min 8 sec) 
Heartbeat CPU  0 instructions:   58000001 cycles:   38347492 heartbeat IPC: 1.37712 cumulative IPC: 1.51248 (Simulation time: 0 hr 1 min 9 sec) 
Heartbeat CPU  0 instructions:   59000001 cycles:   39214806 heartbeat IPC: 1.15298 cumulative IPC: 1.50453 (Simulation time: 0 hr 1 min 10 sec) 
Heartbeat CPU  0 instructions:   60000000 cycles:   39931946 heartbeat IPC: 1.39443 cumulative IPC: 1.50256 (Simulation time: 0 hr 1 min 10 sec) 
Heartbeat CPU  0 instructions:   61000003 cycles:   40523203 heartbeat IPC: 1.69132 cumulative IPC: 1.50531 (Simulation time: 0 hr 1 min 11 sec) 
Heartbeat CPU  0 instructions:   62000001 cycles:   41085262 heartbeat IPC: 1.77917 cumulative IPC: 1.50906 (Simulation time: 0 hr 1 min 13 sec) 
Heartbeat CPU  0 instructions:   63000000 cycles:   41867916 heartbeat IPC: 1.27770 cumulative IPC: 1.50473 (Simulation time: 0 hr 1 min 14 sec) 
Heartbeat CPU  0 instructions:   64000000 cycles:   42439488 heartbeat IPC: 1.74956 cumulative IPC: 1.50803 (Simulation time: 0 hr 1 min 16 sec) 
Heartbeat CPU  0 instructions:   65000003 cycles:   42982106 heartbeat IPC: 1.84292 cumulative IPC: 1.51226 (Simulation time: 0 hr 1 min 17 sec) 
Heartbeat CPU  0 instructions:   66000000 cycles:   43563858 heartbeat IPC: 1.71894 cumulative IPC: 1.51502 (Simulation time: 0 hr 1 min 18 sec) 
Heartbeat CPU  0 instructions:   67000000 cycles:   44243944 heartbeat IPC: 1.47040 cumulative IPC: 1.51433 (Simulation time: 0 hr 1 min 19 sec) 
Heartbeat CPU  0 instructions:   68000000 cycles:   45116726 heartbeat IPC: 1.14576 cumulative IPC: 1.50720 (Simulation time: 0 hr 1 min 20 sec) 
Heartbeat CPU  0 instructions:   69000001 cycles:   45865941 heartbeat IPC: 1.33473 cumulative IPC: 1.50438 (Simulation time: 0 hr 1 min 21 sec) 
Heartbeat CPU  0 instructions:   70000000 cycles:   46461179 heartbeat IPC: 1.68000 cumulative IPC: 1.50663 (Simulation time: 0 hr 1 min 22 sec) 
Heartbeat CPU  0 instructions:   71000002 cycles:   46983244 heartbeat IPC: 1.91547 cumulative IPC: 1.51118 (Simulation time: 0 hr 1 min 23 sec) 
Heartbeat CPU  0 instructions:   72000000 cycles:   47783792 heartbeat IPC: 1.24914 cumulative IPC: 1.50679 (Simulation time: 0 hr 1 min 24 sec) 
Heartbeat CPU  0 instructions:   73000001 cycles:   48358055 heartbeat IPC: 1.74136 cumulative IPC: 1.50957 (Simulation time: 0 hr 1 min 26 sec) 
Heartbeat CPU  0 instructions:   74000002 cycles:   48892228 heartbeat IPC: 1.87205 cumulative IPC: 1.51353 (Simulation time: 0 hr 1 min 27 sec) 
Heartbeat CPU  0 instructions:   75000003 cycles:   49482646 heartbeat IPC: 1.69372 cumulative IPC: 1.51568 (Simulation time: 0 hr 1 min 28 sec) 
Heartbeat CPU  0 instructions:   76000000 cycles:   50128200 heartbeat IPC: 1.54905 cumulative IPC: 1.51611 (Simulation time: 0 hr 1 min 30 sec) 
Heartbeat CPU  0 instructions:   77000001 cycles:   50998240 heartbeat IPC: 1.14937 cumulative IPC: 1.50986 (Simulation time: 0 hr 1 min 30 sec) 
Heartbeat CPU  0 instructions:   78000001 cycles:   51769385 heartbeat IPC: 1.29677 cumulative IPC: 1.50668 (Simulation time: 0 hr 1 min 31 sec) 
Heartbeat CPU  0 instructions:   79000001 cycles:   52367303 heartbeat IPC: 1.67247 cumulative IPC: 1.50857 (Simulation time: 0 hr 1 min 32 sec) 
Heartbeat CPU  0 instructions:   80000000 cycles:   52918429 heartbeat IPC: 1.81447 cumulative IPC: 1.51176 (Simulation time: 0 hr 1 min 33 sec) 
Heartbeat CPU  0 instructions:   81000001 cycles:   53703224 heartbeat IPC: 1.27422 cumulative IPC: 1.50829 (Simulation time: 0 hr 1 min 35 sec) 
Heartbeat CPU  0 instructions:   82000002 cycles:   54291171 heartbeat IPC: 1.70084 cumulative IPC: 1.51037 (Simulation time: 0 hr 1 min 36 sec) 
Heartbeat CPU  0 instructions:   83000003 cycles:   54841709 heartbeat IPC: 1.81641 cumulative IPC: 1.51345 (Simulation time: 0 hr 1 min 37 sec) 
Heartbeat CPU  0 instructions:   84000000 cycles:   55392907 heartbeat IPC: 1.81422 cumulative IPC: 1.51644 (Simulation time: 0 hr 1 min 39 sec) 
Heartbeat CPU  0 instructions:   85000001 cycles:   55968819 heartbeat IPC: 1.73638 cumulative IPC: 1.51870 (Simulation time: 0 hr 1 min 40 sec) 
Heartbeat CPU  0 instructions:   86000000 cycles:   56837665 heartbeat IPC: 1.15095 cumulative IPC: 1.51308 (Simulation time: 0 hr 1 min 41 sec) 
Heartbeat CPU  0 instructions:   87000000 cycles:   57661745 heartbeat IPC: 1.21347 cumulative IPC: 1.50880 (Simulation time: 0 hr 1 min 42 sec) 
Heartbeat CPU  0 instructions:   88000000 cycles:   58272681 heartbeat IPC: 1.63683 cumulative IPC: 1.51014 (Simulation time: 0 hr 1 min 42 sec) 
Heartbeat CPU  0 instructions:   89000003 cycles:   58888207 heartbeat IPC: 1.62463 cumulative IPC: 1.51134 (Simulation time: 0 hr 1 min 44 sec) 
Heartbeat CPU  0 instructions:   90000003 cycles:   59580903 heartbeat IPC: 1.44363 cumulative IPC: 1.51055 (Simulation time: 0 hr 1 min 45 sec) 
Heartbeat CPU  0 instructions:   91000001 cycles:   60229344 heartbeat IPC: 1.54216 cumulative IPC: 1.51089 (Simulation time: 0 hr 1 min 46 sec) 
Heartbeat CPU  0 instructions:   92000000 cycles:   60792247 heartbeat IPC: 1.77650 cumulative IPC: 1.51335 (Simulation time: 0 hr 1 min 47 sec) 
Heartbeat CPU  0 instructions:   93000002 cycles:   61336084 heartbeat IPC: 1.83879 cumulative IPC: 1.51624 (Simulation time: 0 hr 1 min 49 sec) 
Heartbeat CPU  0 instructions:   94000003 cycles:   61913216 heartbeat IPC: 1.73271 cumulative IPC: 1.51825 (Simulation time: 0 hr 1 min 50 sec) 
Heartbeat CPU  0 instructions:   95000003 cycles:   62745371 heartbeat IPC: 1.20170 cumulative IPC: 1.51406 (Simulation time: 0 hr 1 min 51 sec) 
Heartbeat CPU  0 instructions:   96000000 cycles:   63590124 heartbeat IPC: 1.18377 cumulative IPC: 1.50967 (Simulation time: 0 hr 1 min 52 sec) 
Heartbeat CPU  0 instructions:   97000002 cycles:   64220409 heartbeat IPC: 1.58659 cumulative IPC: 1.51042 (Simulation time: 0 hr 1 min 53 sec) 
Heartbeat CPU  0 instructions:   98000003 cycles:   64840635 heartbeat IPC: 1.61232 cumulative IPC: 1.51140 (Simulation time: 0 hr 1 min 54 sec) 
Heartbeat CPU  0 instructions:   99000002 cycles:   65491378 heartbeat IPC: 1.53670 cumulative IPC: 1.51165 (Simulation time: 0 hr 1 min 55 sec) 
Heartbeat CPU  0 instructions:  100000000 cycles:   66074696 heartbeat IPC: 1.71433 cumulative IPC: 1.51344 (Simulation time: 0 hr 1 min 57 sec) 

Warmup complete CPU  0 instructions:  100000002 cycles:   66074698 (Simulation time: 0 hr 1 min 57 sec) 

Heartbeat CPU  0 instructions:  101000001 cycles:   72435001 heartbeat IPC: 0.15723 cumulative IPC: 0.15723 (Simulation time: 0 hr 2 min 0 sec) 
Heartbeat CPU  0 instructions:  102000001 cycles:   75959717 heartbeat IPC: 0.28371 cumulative IPC: 0.20233 (Simulation time: 0 hr 2 min 2 sec) 
Heartbeat CPU  0 instructions:  103000003 cycles:   80209423 heartbeat IPC: 0.23531 cumulative IPC: 0.21224 (Simulation time: 0 hr 2 min 5 sec) 
Heartbeat CPU  0 instructions:  104000000 cycles:   84406956 heartbeat IPC: 0.23823 cumulative IPC: 0.21819 (Simulation time: 0 hr 2 min 8 sec) 
Heartbeat CPU  0 instructions:  105000003 cycles:   87816950 heartbeat IPC: 0.29326 cumulative IPC: 0.22997 (Simulation time: 0 hr 2 min 11 sec) 
Heartbeat CPU  0 instructions:  106000001 cycles:   90804597 heartbeat IPC: 0.33471 cumulative IPC: 0.24262 (Simulation time: 0 hr 2 min 13 sec) 
Heartbeat CPU  0 instructions:  107000003 cycles:   94522230 heartbeat IPC: 0.26899 cumulative IPC: 0.24607 (Simulation time: 0 hr 2 min 16 sec) 
Heartbeat CPU  0 instructions:  108000000 cycles:   97904217 heartbeat IPC: 0.29568 cumulative IPC: 0.25134 (Simulation time: 0 hr 2 min 17 sec) 
Heartbeat CPU  0 instructions:  109000000 cycles:  101334205 heartbeat IPC: 0.29155 cumulative IPC: 0.25525 (Simulation time: 0 hr 2 min 19 sec) 
Heartbeat CPU  0 instructions:  110000001 cycles:  103436039 heartbeat IPC: 0.47578 cumulative IPC: 0.26766 (Simulation time: 0 hr 2 min 21 sec) 
Heartbeat CPU  0 instructions:  111000003 cycles:  105922530 heartbeat IPC: 0.40217 cumulative IPC: 0.27605 (Simulation time: 0 hr 2 min 23 sec) 
Heartbeat CPU  0 instructions:  112000000 cycles:  107718483 heartbeat IPC: 0.55681 cumulative IPC: 0.28816 (Simulation time: 0 hr 2 min 25 sec) 
Heartbeat CPU  0 instructions:  113000000 cycles:  109365605 heartbeat IPC: 0.60712 cumulative IPC: 0.30029 (Simulation time: 0 hr 2 min 27 sec) 
Heartbeat CPU  0 instructions:  114000003 cycles:  110602286 heartbeat IPC: 0.80862 cumulative IPC: 0.31441 (Simulation time: 0 hr 2 min 28 sec) 
Heartbeat CPU  0 instructions:  115000000 cycles:  112305726 heartbeat IPC: 0.58705 cumulative IPC: 0.32446 (Simulation time: 0 hr 2 min 30 sec) 
Heartbeat CPU  0 instructions:  116000000 cycles:  115350452 heartbeat IPC: 0.32844 cumulative IPC: 0.32470 (Simulation time: 0 hr 2 min 32 sec) 
Heartbeat CPU  0 instructions:  117000000 cycles:  117927550 heartbeat IPC: 0.38803 cumulative IPC: 0.32785 (Simulation time: 0 hr 2 min 34 sec) 
Heartbeat CPU  0 instructions:  118000000 cycles:  119447379 heartbeat IPC: 0.65797 cumulative IPC: 0.33725 (Simulation time: 0 hr 2 min 36 sec) 
Heartbeat CPU  0 instructions:  119000000 cycles:  121193859 heartbeat IPC: 0.57258 cumulative IPC: 0.34471 (Simulation time: 0 hr 2 min 38 sec) 
Heartbeat CPU  0 instructions:  120000000 cycles:  122809173 heartbeat IPC: 0.61907 cumulative IPC: 0.35252 (Simulation time: 0 hr 2 min 40 sec) 
Heartbeat CPU  0 instructions:  121000002 cycles:  126823344 heartbeat IPC: 0.24912 cumulative IPC: 0.34569 (Simulation time: 0 hr 2 min 43 sec) 
Heartbeat CPU  0 instructions:  122000001 cycles:  130066560 heartbeat IPC: 0.30834 cumulative IPC: 0.34379 (Simulation time: 0 hr 2 min 45 sec) 
Heartbeat CPU  0 instructions:  123000000 cycles:  131734580 heartbeat IPC: 0.59951 cumulative IPC: 0.35029 (Simulation time: 0 hr 2 min 46 sec) 
Heartbeat CPU  0 instructions:  124000000 cycles:  133102490 heartbeat IPC: 0.73104 cumulative IPC: 0.35806 (Simulation time: 0 hr 2 min 47 sec) 
Heartbeat CPU  0 instructions:  125000000 cycles:  136067105 heartbeat IPC: 0.33731 cumulative IPC: 0.35718 (Simulation time: 0 hr 2 min 49 sec) 
Heartbeat CPU  0 instructions:  126000000 cycles:  138606644 heartbeat IPC: 0.39377 cumulative IPC: 0.35846 (Simulation time: 0 hr 2 min 51 sec) 
Heartbeat CPU  0 instructions:  127000002 cycles:  141678027 heartbeat IPC: 0.32559 cumulative IPC: 0.35713 (Simulation time: 0 hr 2 min 53 sec) 
Heartbeat CPU  0 instructions:  128000000 cycles:  143507920 heartbeat IPC: 0.54648 cumulative IPC: 0.36160 (Simulation time: 0 hr 2 min 55 sec) 
Heartbeat CPU  0 instructions:  129000003 cycles:  145313645 heartbeat IPC: 0.55380 cumulative IPC: 0.36598 (Simulation time: 0 hr 2 min 57 sec) 
Heartbeat CPU  0 instructions:  130000001 cycles:  150270143 heartbeat IPC: 0.20175 cumulative IPC: 0.35631 (Simulation time: 0 hr 3 min 0 sec) 
Heartbeat CPU  0 instructions:  131000000 cycles:  152109347 heartbeat IPC: 0.54371 cumulative IPC: 0.36032 (Simulation time: 0 hr 3 min 1 sec) 
Heartbeat CPU  0 instructions:  132000000 cycles:  153677895 heartbeat IPC: 0.63753 cumulative IPC: 0.36528 (Simulation time: 0 hr 3 min 2 sec) 
Heartbeat CPU  0 instructions:  133000000 cycles:  155392911 heartbeat IPC: 0.58308 cumulative IPC: 0.36947 (Simulation time: 0 hr 3 min 4 sec) 
Heartbeat CPU  0 instructions:  134000000 cycles:  158412388 heartbeat IPC: 0.33118 cumulative IPC: 0.36821 (Simulation time: 0 hr 3 min 6 sec) 
Heartbeat CPU  0 instructions:  135000002 cycles:  161703913 heartbeat IPC: 0.30381 cumulative IPC: 0.36600 (Simulation time: 0 hr 3 min 8 sec) 
Heartbeat CPU  0 instructions:  136000000 cycles:  163206822 heartbeat IPC: 0.66537 cumulative IPC: 0.37063 (Simulation time: 0 hr 3 min 10 sec) 
Heartbeat CPU  0 instructions:  137000000 cycles:  164978066 heartbeat IPC: 0.56457 cumulative IPC: 0.37410 (Simulation time: 0 hr 3 min 12 sec) 
Heartbeat CPU  0 instructions:  138000003 cycles:  167686427 heartbeat IPC: 0.36923 cumulative IPC: 0.37397 (Simulation time: 0 hr 3 min 14 sec) 
Heartbeat CPU  0 instructions:  139000000 cycles:  172107768 heartbeat IPC: 0.22618 cumulative IPC: 0.36781 (Simulation time: 0 hr 3 min 17 sec) 
Heartbeat CPU  0 instructions:  140000000 cycles:  173792373 heartbeat IPC: 0.59361 cumulative IPC: 0.37134 (Simulation time: 0 hr 3 min 18 sec) 
Heartbeat CPU  0 instructions:  141000000 cycles:  175273395 heartbeat IPC: 0.67521 cumulative IPC: 0.37546 (Simulation time: 0 hr 3 min 19 sec) 
Heartbeat CPU  0 instructions:  142000000 cycles:  177544789 heartbeat IPC: 0.44026 cumulative IPC: 0.37678 (Simulation time: 0 hr 3 min 21 sec) 
Heartbeat CPU  0 instructions:  143000000 cycles:  180018800 heartbeat IPC: 0.40420 cumulative IPC: 0.37738 (Simulation time: 0 hr 3 min 23 sec) 
Heartbeat CPU  0 instructions:  144000000 cycles:  183307301 heartbeat IPC: 0.30409 cumulative IPC: 0.37532 (Simulation time: 0 hr 3 min 25 sec) 
Heartbeat CPU  0 instructions:  145000002 cycles:  185145703 heartbeat IPC: 0.54395 cumulative IPC: 0.37793 (Simulation time: 0 hr 3 min 27 sec) 
Heartbeat CPU  0 instructions:  146000003 cycles:  186609810 heartbeat IPC: 0.68301 cumulative IPC: 0.38163 (Simulation time: 0 hr 3 min 29 sec) 
Heartbeat CPU  0 instructions:  147000001 cycles:  190313947 heartbeat IPC: 0.26997 cumulative IPC: 0.37830 (Simulation time: 0 hr 3 min 32 sec) 
Heartbeat CPU  0 instructions:  148000000 cycles:  193685569 heartbeat IPC: 0.29659 cumulative IPC: 0.37614 (Simulation time: 0 hr 3 min 34 sec) 
Heartbeat CPU  0 instructions:  149000000 cycles:  195368950 heartbeat IPC: 0.59404 cumulative IPC: 0.37898 (Simulation time: 0 hr 3 min 35 sec) 
Heartbeat CPU  0 instructions:  150000002 cycles:  196772349 heartbeat IPC: 0.71256 cumulative IPC: 0.38256 (Simulation time: 0 hr 3 min 36 sec) 
Heartbeat CPU  0 instructions:  151000000 cycles:  199561588 heartbeat IPC: 0.35852 cumulative IPC: 0.38206 (Simulation time: 0 hr 3 min 38 sec) 
Heartbeat CPU  0 instructions:  152000000 cycles:  201914214 heartbeat IPC: 0.42506 cumulative IPC: 0.38280 (Simulation time: 0 hr 3 min 41 sec) 
Heartbeat CPU  0 instructions:  153000000 cycles:  204666815 heartbeat IPC: 0.36329 cumulative IPC: 0.38242 (Simulation time: 0 hr 3 min 43 sec) 
Heartbeat CPU  0 instructions:  154000002 cycles:  206494622 heartbeat IPC: 0.54710 cumulative IPC: 0.38456 (Simulation time: 0 hr 3 min 44 sec) 
Heartbeat CPU  0 instructions:  155000002 cycles:  207953959 heartbeat IPC: 0.68524 cumulative IPC: 0.38765 (Simulation time: 0 hr 3 min 46 sec) 
Heartbeat CPU  0 instructions:  156000000 cycles:  212532943 heartbeat IPC: 0.21839 cumulative IPC: 0.38236 (Simulation time: 0 hr 3 min 50 sec) 
Heartbeat CPU  0 instructions:  157000000 cycles:  215496890 heartbeat IPC: 0.33739 cumulative IPC: 0.38147 (Simulation time: 0 hr 3 min 52 sec) 
Heartbeat CPU  0 instructions:  158000003 cycles:  217155970 heartbeat IPC: 0.60275 cumulative IPC: 0.38390 (Simulation time: 0 hr 3 min 53 sec) 
Heartbeat CPU  0 instructions:  159000000 cycles:  218483529 heartbeat IPC: 0.75326 cumulative IPC: 0.38712 (Simulation time: 0 hr 3 min 54 sec) 
Heartbeat CPU  0 instructions:  160000000 cycles:  221889629 heartbeat IPC: 0.29359 cumulative IPC: 0.38507 (Simulation time: 0 hr 3 min 56 sec) 
Heartbeat CPU  0 instructions:  161000003 cycles:  224508889 heartbeat IPC: 0.38179 cumulative IPC: 0.38502 (Simulation time: 0 hr 3 min 58 sec) 
Heartbeat CPU  0 instructions:  162000001 cycles:  227108778 heartbeat IPC: 0.38463 cumulative IPC: 0.38501 (Simulation time: 0 hr 4 min 0 sec) 
Heartbeat CPU  0 instructions:  163000000 cycles:  228944361 heartbeat IPC: 0.54479 cumulative IPC: 0.38681 (Simulation time: 0 hr 4 min 2 sec) 
Heartbeat CPU  0 instructions:  164000000 cycles:  230756129 heartbeat IPC: 0.55195 cumulative IPC: 0.38863 (Simulation time: 0 hr 4 min 4 sec) 
Heartbeat CPU  0 instructions:  165000001 cycles:  235677275 heartbeat IPC: 0.20320 cumulative IPC: 0.38325 (Simulation time: 0 hr 4 min 8 sec) 
Heartbeat CPU  0 instructions:  166000000 cycles:  237578806 heartbeat IPC: 0.52589 cumulative IPC: 0.38483 (Simulation time: 0 hr 4 min 9 sec) 
Heartbeat CPU  0 instructions:  167000001 cycles:  239153497 heartbeat IPC: 0.63505 cumulative IPC: 0.38711 (Simulation time: 0 hr 4 min 10 sec) 
Heartbeat CPU  0 instructions:  168000000 cycles:  240841940 heartbeat IPC: 0.59226 cumulative IPC: 0.38909 (Simulation time: 0 hr 4 min 11 sec) 
Heartbeat CPU  0 instructions:  169000001 cycles:  243879149 heartbeat IPC: 0.32925 cumulative IPC: 0.38807 (Simulation time: 0 hr 4 min 13 sec) 
Heartbeat CPU  0 instructions:  170000002 cycles:  247209456 heartbeat IPC: 0.30027 cumulative IPC: 0.38645 (Simulation time: 0 hr 4 min 16 sec) 
Heartbeat CPU  0 instructions:  171000000 cycles:  248637680 heartbeat IPC: 0.70017 cumulative IPC: 0.38891 (Simulation time: 0 hr 4 min 17 sec) 
Heartbeat CPU  0 instructions:  172000000 cycles:  250416151 heartbeat IPC: 0.56228 cumulative IPC: 0.39058 (Simulation time: 0 hr 4 min 19 sec) 
Heartbeat CPU  0 instructions:  173000003 cycles:  253163762 heartbeat IPC: 0.36395 cumulative IPC: 0.39019 (Simulation time: 0 hr 4 min 22 sec) 
Heartbeat CPU  0 instructions:  174000000 cycles:  257717465 heartbeat IPC: 0.21960 cumulative IPC: 0.38614 (Simulation time: 0 hr 4 min 25 sec) 
Heartbeat CPU  0 instructions:  175000000 cycles:  259405001 heartbeat IPC: 0.59258 cumulative IPC: 0.38794 (Simulation time: 0 hr 4 min 26 sec) 
Heartbeat CPU  0 instructions:  176000000 cycles:  260891749 heartbeat IPC: 0.67261 cumulative IPC: 0.39011 (Simulation time: 0 hr 4 min 27 sec) 
Heartbeat CPU  0 instructions:  177000001 cycles:  263176072 heartbeat IPC: 0.43777 cumulative IPC: 0.39066 (Simulation time: 0 hr 4 min 28 sec) 
Heartbeat CPU  0 instructions:  178000001 cycles:  265658805 heartbeat IPC: 0.40278 cumulative IPC: 0.39081 (Simulation time: 0 hr 4 min 30 sec) 
Heartbeat CPU  0 instructions:  179000002 cycles:  269039365 heartbeat IPC: 0.29581 cumulative IPC: 0.38923 (Simulation time: 0 hr 4 min 33 sec) 
Heartbeat CPU  0 instructions:  180000000 cycles:  271010449 heartbeat IPC: 0.50733 cumulative IPC: 0.39037 (Simulation time: 0 hr 4 min 35 sec) 
Heartbeat CPU  0 instructions:  181000003 cycles:  272403112 heartbeat IPC: 0.71805 cumulative IPC: 0.39258 (Simulation time: 0 hr 4 min 36 sec) 
Heartbeat CPU  0 instructions:  182000000 cycles:  276477039 heartbeat IPC: 0.24546 cumulative IPC: 0.38973 (Simulation time: 0 hr 4 min 39 sec) 
Heartbeat CPU  0 instructions:  183000000 cycles:  279699399 heartbeat IPC: 0.31033 cumulative IPC: 0.38853 (Simulation time: 0 hr 4 min 42 sec) 
Heartbeat CPU  0 instructions:  184000000 cycles:  281359524 heartbeat IPC: 0.60236 cumulative IPC: 0.39018 (Simulation time: 0 hr 4 min 43 sec) 
Heartbeat CPU  0 instructions:  185000002 cycles:  282690133 heartbeat IPC: 0.75154 cumulative IPC: 0.39240 (Simulation time: 0 hr 4 min 44 sec) 
Heartbeat CPU  0 instructions:  186000000 cycles:  285942637 heartbeat IPC: 0.30745 cumulative IPC: 0.39114 (Simulation time: 0 hr 4 min 46 sec) 
Heartbeat CPU  0 instructions:  187000003 cycles:  288544573 heartbeat IPC: 0.38433 cumulative IPC: 0.39106 (Simulation time: 0 hr 4 min 48 sec) 
Heartbeat CPU  0 instructions:  188000000 cycles:  290783277 heartbeat IPC: 0.44669 cumulative IPC: 0.39162 (Simulation time: 0 hr 4 min 50 sec) 
Heartbeat CPU  0 instructions:  189000001 cycles:  292615722 heartbeat IPC: 0.54572 cumulative IPC: 0.39286 (Simulation time: 0 hr 4 min 52 sec) 
Heartbeat CPU  0 instructions:  190000001 cycles:  294370132 heartbeat IPC: 0.56999 cumulative IPC: 0.39423 (Simulation time: 0 hr 4 min 54 sec) 
Heartbeat CPU  0 instructions:  191000002 cycles:  299154859 heartbeat IPC: 0.20900 cumulative IPC: 0.39042 (Simulation time: 0 hr 4 min 58 sec) 
Heartbeat CPU  0 instructions:  192000000 cycles:  301527507 heartbeat IPC: 0.42147 cumulative IPC: 0.39074 (Simulation time: 0 hr 4 min 59 sec) 
Heartbeat CPU  0 instructions:  193000003 cycles:  303148887 heartbeat IPC: 0.61676 cumulative IPC: 0.39228 (Simulation time: 0 hr 5 min 0 sec) 
Heartbeat CPU  0 instructions:  194000001 cycles:  304630379 heartbeat IPC: 0.67499 cumulative IPC: 0.39404 (Simulation time: 0 hr 5 min 1 sec) 
Heartbeat CPU  0 instructions:  195000001 cycles:  307898988 heartbeat IPC: 0.30594 cumulative IPC: 0.39285 (Simulation time: 0 hr 5 min 3 sec) 
Heartbeat CPU  0 instructions:  196000000 cycles:  310876726 heartbeat IPC: 0.33583 cumulative IPC: 0.39215 (Simulation time: 0 hr 5 min 6 sec) 
Heartbeat CPU  0 instructions:  197000000 cycles:  312880031 heartbeat IPC: 0.49918 cumulative IPC: 0.39302 (Simulation time: 0 hr 5 min 8 sec) 
Heartbeat CPU  0 instructions:  198000000 cycles:  314638239 heartbeat IPC: 0.56876 cumulative IPC: 0.39427 (Simulation time: 0 hr 5 min 9 sec) 
Heartbeat CPU  0 instructions:  199000002 cycles:  316650683 heartbeat IPC: 0.49691 cumulative IPC: 0.39509 (Simulation time: 0 hr 5 min 11 sec) 
Heartbeat CPU  0 instructions:  200000000 cycles:  321555712 heartbeat IPC: 0.20387 cumulative IPC: 0.39142 (Simulation time: 0 hr 5 min 15 sec) 
Finished CPU 0 instructions: 100000000 cycles: 255481027 cumulative IPC: 0.39142 (Simulation time: 0 hr 5 min 15 sec) 

ChampSim completed all CPUs

[ROI Statistics]
Core_0_instructions 100000000
Core_0_cycles 255481027
Core_0_IPC 0.39142

Core_0_branch_prediction_accuracy 95.09858
Core_0_branch_MPKI 8.66907
Core_0_average_ROB_occupancy_at_mispredict 83.05790

Core_0_L1D_total_access 31758742
Core_0_L1D_total_hit 24138475
Core_0_L1D_total_miss 7620267
Core_0_L1D_loads 16214825
Core_0_L1D_load_hit 13566251
Core_0_L1D_load_miss 2648574
Core_0_L1D_RFOs 5392692
Core_0_L1D_RFO_hit 4557979
Core_0_L1D_RFO_miss 834713
Core_0_L1D_prefetches 10151225
Core_0_L1D_prefetch_hit 6014245
Core_0_L1D_prefetch_miss 4136980
Core_0_L1D_writebacks 0
Core_0_L1D_writeback_hit 0
Core_0_L1D_writeback_miss 0
Core_0_L1D_prefetch_requested 33945022
Core_0_L1D_prefetch_issued 25463032
Core_0_L1D_prefetch_useful 4246996
Core_0_L1D_prefetch_useless 4065523
Core_0_L1D_prefetch_late 354404
Core_0_L1D_average_miss_latency 7636643.31929

Core_0_L1I_total_access 20708090
Core_0_L1I_total_hit 20707458
Core_0_L1I_total_miss 632
Core_0_L1I_loads 20708090
Core_0_L1I_load_hit 20707458
Core_0_L1I_load_miss 632
Core_0_L1I_RFOs 0
Core_0_L1I_RFO_hit 0
Core_0_L1I_RFO_miss 0
Core_0_L1I_prefetches 0
Core_0_L1I_prefetch_hit 0
Core_0_L1I_prefetch_miss 0
Core_0_L1I_writebacks 0
Core_0_L1I_writeback_hit 0
Core_0_L1I_writeback_miss 0
Core_0_L1I_prefetch_requested 0
Core_0_L1I_prefetch_issued 0
Core_0_L1I_prefetch_useful 0
Core_0_L1I_prefetch_useless 0
Core_0_L1I_prefetch_late 0
Core_0_L1I_average_miss_latency 243.43513

Core_0_L2C_total_access 12978907
Core_0_L2C_total_hit 7753231
Core_0_L2C_total_miss 5225676
Core_0_L2C_loads 2374147
Core_0_L2C_load_hit 1174492
Core_0_L2C_load_miss 1199655
Core_0_L2C_RFOs 834508
Core_0_L2C_RFO_hit 151402
Core_0_L2C_RFO_miss 683106
Core_0_L2C_prefetches 7292959
Core_0_L2C_prefetch_hit 3950157
Core_0_L2C_prefetch_miss 3342802
Core_0_L2C_writebacks 2477293
Core_0_L2C_writeback_hit 2477180
Core_0_L2C_writeback_miss 113
Core_0_L2C_prefetch_requested 12553687
Core_0_L2C_prefetch_issued 12536208
Core_0_L2C_prefetch_useful 702642
Core_0_L2C_prefetch_useless 6157151
Core_0_L2C_prefetch_late 14964
Core_0_L2C_average_miss_latency 224.48668

Core_0_LLC_total_access 9108488
Core_0_LLC_total_hit 4452668
Core_0_LLC_total_miss 4655820
Core_0_LLC_loads 1186866
Core_0_LLC_load_hit 561590
Core_0_LLC_load_miss 625276
Core_0_LLC_RFOs 683103
Core_0_LLC_RFO_hit 115930
Core_0_LLC_RFO_miss 567173
Core_0_LLC_prefetches 5620694
Core_0_LLC_prefetch_hit 2616924
Core_0_LLC_prefetch_miss 3003770
Core_0_LLC_writebacks 1617825
Core_0_LLC_writeback_hit 1158224
Core_0_LLC_writeback_miss 459601
Core_0_LLC_prefetch_requested 8567377
Core_0_LLC_prefetch_issued 8427497
Core_0_LLC_prefetch_useful 807938
Core_0_LLC_prefetch_useless 5595606
Core_0_LLC_prefetch_late 24938
Core_0_LLC_average_miss_latency 292.26723

Core_0_major_page_fault 0
Core_0_minor_page_fault 12935


CPU 0 L2C PC-based stride prefetcher final stats
LLC Next Line Prefetcher Final Stats: none
Channel_0_RQ_row_buffer_hit 1228765
Channel_0_RQ_row_buffer_miss 2964604
Channel_0_WQ_row_buffer_hit 279196
Channel_0_WQ_row_buffer_miss 921728
Channel_0_WQ_full 3223
Channel_0_dbus_congested 3386034

avg_congested_cycle 11
