*************************************************
   ChampSim Multicore Out-of-Order Simulator
   Last compiled: Jan 18 2024 13:33:55
*************************************************

trace_0 ./traces/462.libquantum-714B.champsimtrace.xz
CPU 0 L2C IP-based stride prefetcher
Initialize HawkEye state
LLC Next Line Prefetcher
warmup_instructions 100000000
simulation_instructions 100000000
champsim_seed 222

num_cpus 1
cpu_freq 4000
dram_io_freq 2400
page_size 4096
block_size 64
max_read_per_cycle 8
max_fill_per_cycle 1
dram_channels 1
dram_ranks 1
dram_banks 8
dram_rows 65536
dram_columns 128
dram_row_size 8
dram_size 4096
dram_pages 1048576

fetch_width 6
decode_width 6
exec_width 4
lq_width 2
sq_width 2
retire_width 4
scheduler_size 128
branch_mispredict_penalty 20
rob_size 256
lq_size 72
sq_size 56
num_instr_destinations_sparc 4
num_instr_destinations 2
num_instr_sources 4

itlb_set 16
itlb_way 8
itlb_rq_size 16
itlb_wq_size 16
itlb_pq_size 0
itlb_mshr_size 8
itlb_latency 1

dtlb_set 16
dtlb_way 4
dtlb_rq_size 16
dtlb_wq_size 16
dtlb_pq_size 0
dtlb_mshr_size 8
dtlb_latency 1

stlb_set 128
stlb_way 12
stlb_rq_size 32
stlb_wq_size 32
stlb_pq_size 0
stlb_mshr_size 16
stlb_latency 8

l1i_size 32
l1i_set 64
l1i_way 8
l1i_rq_size 64
l1i_wq_size 64
l1i_pq_size 8
l1i_mshr_size 8
l1i_latency 1

l1d_size 32
l1d_set 64
l1d_way 8
l1d_rq_size 64
l1d_wq_size 64
l1d_pq_size 8
l1d_mshr_size 16
l1d_latency 4

l2c_size 512
l2c_set 1024
l2c_way 8
l2c_rq_size 32
l2c_wq_size 32
l2c_pq_size 16
l2c_mshr_size 32
l2c_latency 10

llc_size 2048
llc_set 2048
llc_way 16
llc_rq_size 32
llc_wq_size 32
llc_pq_size 32
llc_mshr_size 64
llc_latency 20

dram_channel_width 8
dram_wq_size 64
dram_rq_size 64
tRP 15
tRCD 15
tCAS 12.5
dram_dbus_turn_around_time 30
dram_write_high_wm 56
dram_write_low_wm 48
min_dram_writes_per_switch 16
dram_mtps 2400
dram_dbus_return_time 13


Heartbeat CPU  0 instructions:    1000000 cycles:     581408 heartbeat IPC: 1.71996 cumulative IPC: 1.71996 (Simulation time: 0 hr 0 min 1 sec) 
Heartbeat CPU  0 instructions:    2000003 cycles:    1163441 heartbeat IPC: 1.71812 cumulative IPC: 1.71904 (Simulation time: 0 hr 0 min 2 sec) 
Heartbeat CPU  0 instructions:    3000002 cycles:    1745473 heartbeat IPC: 1.71812 cumulative IPC: 1.71873 (Simulation time: 0 hr 0 min 2 sec) 
Heartbeat CPU  0 instructions:    4000000 cycles:    2327502 heartbeat IPC: 1.71812 cumulative IPC: 1.71858 (Simulation time: 0 hr 0 min 3 sec) 
Heartbeat CPU  0 instructions:    5000000 cycles:    2909534 heartbeat IPC: 1.71812 cumulative IPC: 1.71849 (Simulation time: 0 hr 0 min 4 sec) 
Heartbeat CPU  0 instructions:    6000000 cycles:    3491568 heartbeat IPC: 1.71811 cumulative IPC: 1.71843 (Simulation time: 0 hr 0 min 5 sec) 
Heartbeat CPU  0 instructions:    7000000 cycles:    4073599 heartbeat IPC: 1.71812 cumulative IPC: 1.71838 (Simulation time: 0 hr 0 min 6 sec) 
Heartbeat CPU  0 instructions:    8000000 cycles:    4655632 heartbeat IPC: 1.71812 cumulative IPC: 1.71835 (Simulation time: 0 hr 0 min 7 sec) 
Heartbeat CPU  0 instructions:    9000002 cycles:    5193635 heartbeat IPC: 1.85873 cumulative IPC: 1.73289 (Simulation time: 0 hr 0 min 8 sec) 
Heartbeat CPU  0 instructions:   10000002 cycles:    5717613 heartbeat IPC: 1.90848 cumulative IPC: 1.74898 (Simulation time: 0 hr 0 min 10 sec) 
Heartbeat CPU  0 instructions:   11000001 cycles:    6241615 heartbeat IPC: 1.90839 cumulative IPC: 1.76236 (Simulation time: 0 hr 0 min 11 sec) 
Heartbeat CPU  0 instructions:   12000000 cycles:    6765593 heartbeat IPC: 1.90848 cumulative IPC: 1.77368 (Simulation time: 0 hr 0 min 13 sec) 
Heartbeat CPU  0 instructions:   13000001 cycles:    7289618 heartbeat IPC: 1.90831 cumulative IPC: 1.78336 (Simulation time: 0 hr 0 min 14 sec) 
Heartbeat CPU  0 instructions:   14000001 cycles:    7813596 heartbeat IPC: 1.90848 cumulative IPC: 1.79175 (Simulation time: 0 hr 0 min 15 sec) 
Heartbeat CPU  0 instructions:   15000000 cycles:    8337598 heartbeat IPC: 1.90839 cumulative IPC: 1.79908 (Simulation time: 0 hr 0 min 17 sec) 
Heartbeat CPU  0 instructions:   16000000 cycles:    8861576 heartbeat IPC: 1.90848 cumulative IPC: 1.80555 (Simulation time: 0 hr 0 min 18 sec) 
Heartbeat CPU  0 instructions:   17000000 cycles:    9385601 heartbeat IPC: 1.90831 cumulative IPC: 1.81129 (Simulation time: 0 hr 0 min 20 sec) 
Heartbeat CPU  0 instructions:   18000000 cycles:    9909579 heartbeat IPC: 1.90848 cumulative IPC: 1.81642 (Simulation time: 0 hr 0 min 21 sec) 
Heartbeat CPU  0 instructions:   19000003 cycles:   10433580 heartbeat IPC: 1.90840 cumulative IPC: 1.82104 (Simulation time: 0 hr 0 min 23 sec) 
Heartbeat CPU  0 instructions:   20000000 cycles:   10957558 heartbeat IPC: 1.90847 cumulative IPC: 1.82522 (Simulation time: 0 hr 0 min 24 sec) 
Heartbeat CPU  0 instructions:   21000003 cycles:   11481583 heartbeat IPC: 1.90831 cumulative IPC: 1.82902 (Simulation time: 0 hr 0 min 25 sec) 
Heartbeat CPU  0 instructions:   22000003 cycles:   12005561 heartbeat IPC: 1.90848 cumulative IPC: 1.83248 (Simulation time: 0 hr 0 min 27 sec) 
Heartbeat CPU  0 instructions:   23000000 cycles:   12521103 heartbeat IPC: 1.93970 cumulative IPC: 1.83690 (Simulation time: 0 hr 0 min 28 sec) 
Heartbeat CPU  0 instructions:   24000000 cycles:   12941384 heartbeat IPC: 2.37936 cumulative IPC: 1.85452 (Simulation time: 0 hr 0 min 29 sec) 
Heartbeat CPU  0 instructions:   25000000 cycles:   13361660 heartbeat IPC: 2.37939 cumulative IPC: 1.87102 (Simulation time: 0 hr 0 min 30 sec) 
Heartbeat CPU  0 instructions:   26000000 cycles:   13781946 heartbeat IPC: 2.37933 cumulative IPC: 1.88653 (Simulation time: 0 hr 0 min 31 sec) 
Heartbeat CPU  0 instructions:   27000000 cycles:   14202257 heartbeat IPC: 2.37919 cumulative IPC: 1.90111 (Simulation time: 0 hr 0 min 31 sec) 
Heartbeat CPU  0 instructions:   28000000 cycles:   14622565 heartbeat IPC: 2.37921 cumulative IPC: 1.91485 (Simulation time: 0 hr 0 min 32 sec) 
Heartbeat CPU  0 instructions:   29000002 cycles:   15042843 heartbeat IPC: 2.37938 cumulative IPC: 1.92783 (Simulation time: 0 hr 0 min 33 sec) 
Heartbeat CPU  0 instructions:   30000003 cycles:   15463109 heartbeat IPC: 2.37945 cumulative IPC: 1.94010 (Simulation time: 0 hr 0 min 34 sec) 
Heartbeat CPU  0 instructions:   31000001 cycles:   15883403 heartbeat IPC: 2.37928 cumulative IPC: 1.95172 (Simulation time: 0 hr 0 min 34 sec) 
Heartbeat CPU  0 instructions:   32000000 cycles:   16303722 heartbeat IPC: 2.37914 cumulative IPC: 1.96274 (Simulation time: 0 hr 0 min 35 sec) 
Heartbeat CPU  0 instructions:   33000003 cycles:   16723996 heartbeat IPC: 2.37941 cumulative IPC: 1.97321 (Simulation time: 0 hr 0 min 36 sec) 
Heartbeat CPU  0 instructions:   34000000 cycles:   17144258 heartbeat IPC: 2.37946 cumulative IPC: 1.98317 (Simulation time: 0 hr 0 min 37 sec) 
Heartbeat CPU  0 instructions:   35000002 cycles:   17564547 heartbeat IPC: 2.37932 cumulative IPC: 1.99265 (Simulation time: 0 hr 0 min 38 sec) 
Heartbeat CPU  0 instructions:   36000000 cycles:   17984860 heartbeat IPC: 2.37917 cumulative IPC: 2.00168 (Simulation time: 0 hr 0 min 38 sec) 
Heartbeat CPU  0 instructions:   37000000 cycles:   18405176 heartbeat IPC: 2.37916 cumulative IPC: 2.01030 (Simulation time: 0 hr 0 min 39 sec) 
Heartbeat CPU  0 instructions:   38000002 cycles:   18825445 heartbeat IPC: 2.37943 cumulative IPC: 2.01854 (Simulation time: 0 hr 0 min 40 sec) 
Heartbeat CPU  0 instructions:   39000000 cycles:   19245728 heartbeat IPC: 2.37934 cumulative IPC: 2.02642 (Simulation time: 0 hr 0 min 41 sec) 
Heartbeat CPU  0 instructions:   40000000 cycles:   19666022 heartbeat IPC: 2.37929 cumulative IPC: 2.03396 (Simulation time: 0 hr 0 min 41 sec) 
Heartbeat CPU  0 instructions:   41000002 cycles:   20086358 heartbeat IPC: 2.37905 cumulative IPC: 2.04119 (Simulation time: 0 hr 0 min 42 sec) 
Heartbeat CPU  0 instructions:   42000003 cycles:   20506628 heartbeat IPC: 2.37943 cumulative IPC: 2.04812 (Simulation time: 0 hr 0 min 43 sec) 
Heartbeat CPU  0 instructions:   43000001 cycles:   20926898 heartbeat IPC: 2.37942 cumulative IPC: 2.05477 (Simulation time: 0 hr 0 min 44 sec) 
Heartbeat CPU  0 instructions:   44000000 cycles:   21347168 heartbeat IPC: 2.37942 cumulative IPC: 2.06116 (Simulation time: 0 hr 0 min 44 sec) 
Heartbeat CPU  0 instructions:   45000001 cycles:   21767471 heartbeat IPC: 2.37924 cumulative IPC: 2.06731 (Simulation time: 0 hr 0 min 45 sec) 
Heartbeat CPU  0 instructions:   46000001 cycles:   22187778 heartbeat IPC: 2.37921 cumulative IPC: 2.07321 (Simulation time: 0 hr 0 min 46 sec) 
Heartbeat CPU  0 instructions:   47000000 cycles:   22767606 heartbeat IPC: 1.72465 cumulative IPC: 2.06434 (Simulation time: 0 hr 0 min 47 sec) 
Heartbeat CPU  0 instructions:   48000000 cycles:   23350454 heartbeat IPC: 1.71571 cumulative IPC: 2.05563 (Simulation time: 0 hr 0 min 48 sec) 
Heartbeat CPU  0 instructions:   49000000 cycles:   23933198 heartbeat IPC: 1.71602 cumulative IPC: 2.04737 (Simulation time: 0 hr 0 min 49 sec) 
Heartbeat CPU  0 instructions:   50000002 cycles:   24515940 heartbeat IPC: 1.71603 cumulative IPC: 2.03949 (Simulation time: 0 hr 0 min 49 sec) 
Heartbeat CPU  0 instructions:   51000002 cycles:   25098681 heartbeat IPC: 1.71603 cumulative IPC: 2.03198 (Simulation time: 0 hr 0 min 50 sec) 
Heartbeat CPU  0 instructions:   52000000 cycles:   25681420 heartbeat IPC: 1.71603 cumulative IPC: 2.02481 (Simulation time: 0 hr 0 min 51 sec) 
Heartbeat CPU  0 instructions:   53000000 cycles:   26264161 heartbeat IPC: 1.71603 cumulative IPC: 2.01796 (Simulation time: 0 hr 0 min 52 sec) 
Heartbeat CPU  0 instructions:   54000003 cycles:   26846904 heartbeat IPC: 1.71603 cumulative IPC: 2.01141 (Simulation time: 0 hr 0 min 53 sec) 
Heartbeat CPU  0 instructions:   55000002 cycles:   27429646 heartbeat IPC: 1.71602 cumulative IPC: 2.00513 (Simulation time: 0 hr 0 min 54 sec) 
Heartbeat CPU  0 instructions:   56000000 cycles:   28012385 heartbeat IPC: 1.71603 cumulative IPC: 1.99912 (Simulation time: 0 hr 0 min 54 sec) 
Heartbeat CPU  0 instructions:   57000000 cycles:   28595127 heartbeat IPC: 1.71603 cumulative IPC: 1.99335 (Simulation time: 0 hr 0 min 55 sec) 
Heartbeat CPU  0 instructions:   58000000 cycles:   29177871 heartbeat IPC: 1.71602 cumulative IPC: 1.98781 (Simulation time: 0 hr 0 min 56 sec) 
Heartbeat CPU  0 instructions:   59000000 cycles:   29760612 heartbeat IPC: 1.71603 cumulative IPC: 1.98249 (Simulation time: 0 hr 0 min 57 sec) 
Heartbeat CPU  0 instructions:   60000000 cycles:   30343355 heartbeat IPC: 1.71602 cumulative IPC: 1.97737 (Simulation time: 0 hr 0 min 58 sec) 
Heartbeat CPU  0 instructions:   61000002 cycles:   30926100 heartbeat IPC: 1.71602 cumulative IPC: 1.97244 (Simulation time: 0 hr 0 min 59 sec) 
Heartbeat CPU  0 instructions:   62000002 cycles:   31508864 heartbeat IPC: 1.71596 cumulative IPC: 1.96770 (Simulation time: 0 hr 1 min 0 sec) 
Heartbeat CPU  0 instructions:   63000001 cycles:   32091609 heartbeat IPC: 1.71601 cumulative IPC: 1.96313 (Simulation time: 0 hr 1 min 0 sec) 
Heartbeat CPU  0 instructions:   64000000 cycles:   32674348 heartbeat IPC: 1.71603 cumulative IPC: 1.95872 (Simulation time: 0 hr 1 min 1 sec) 
Heartbeat CPU  0 instructions:   65000003 cycles:   33257091 heartbeat IPC: 1.71603 cumulative IPC: 1.95447 (Simulation time: 0 hr 1 min 2 sec) 
Heartbeat CPU  0 instructions:   66000002 cycles:   33839833 heartbeat IPC: 1.71602 cumulative IPC: 1.95036 (Simulation time: 0 hr 1 min 3 sec) 
Heartbeat CPU  0 instructions:   67000001 cycles:   34422572 heartbeat IPC: 1.71603 cumulative IPC: 1.94640 (Simulation time: 0 hr 1 min 4 sec) 
Heartbeat CPU  0 instructions:   68000000 cycles:   35005315 heartbeat IPC: 1.71602 cumulative IPC: 1.94256 (Simulation time: 0 hr 1 min 5 sec) 
Heartbeat CPU  0 instructions:   69000000 cycles:   35588079 heartbeat IPC: 1.71596 cumulative IPC: 1.93885 (Simulation time: 0 hr 1 min 5 sec) 
Heartbeat CPU  0 instructions:   70000000 cycles:   36114634 heartbeat IPC: 1.89914 cumulative IPC: 1.93827 (Simulation time: 0 hr 1 min 7 sec) 
Heartbeat CPU  0 instructions:   71000003 cycles:   36635284 heartbeat IPC: 1.92068 cumulative IPC: 1.93802 (Simulation time: 0 hr 1 min 8 sec) 
Heartbeat CPU  0 instructions:   72000000 cycles:   37155914 heartbeat IPC: 1.92074 cumulative IPC: 1.93778 (Simulation time: 0 hr 1 min 10 sec) 
Heartbeat CPU  0 instructions:   73000002 cycles:   37676591 heartbeat IPC: 1.92058 cumulative IPC: 1.93754 (Simulation time: 0 hr 1 min 11 sec) 
Heartbeat CPU  0 instructions:   74000002 cycles:   38197221 heartbeat IPC: 1.92075 cumulative IPC: 1.93731 (Simulation time: 0 hr 1 min 12 sec) 
Heartbeat CPU  0 instructions:   75000001 cycles:   38717875 heartbeat IPC: 1.92066 cumulative IPC: 1.93709 (Simulation time: 0 hr 1 min 14 sec) 
Heartbeat CPU  0 instructions:   76000000 cycles:   39238505 heartbeat IPC: 1.92075 cumulative IPC: 1.93687 (Simulation time: 0 hr 1 min 15 sec) 
Heartbeat CPU  0 instructions:   77000001 cycles:   39759182 heartbeat IPC: 1.92058 cumulative IPC: 1.93666 (Simulation time: 0 hr 1 min 17 sec) 
Heartbeat CPU  0 instructions:   78000001 cycles:   40279812 heartbeat IPC: 1.92075 cumulative IPC: 1.93645 (Simulation time: 0 hr 1 min 18 sec) 
Heartbeat CPU  0 instructions:   79000000 cycles:   40800485 heartbeat IPC: 1.92059 cumulative IPC: 1.93625 (Simulation time: 0 hr 1 min 20 sec) 
Heartbeat CPU  0 instructions:   80000000 cycles:   41321127 heartbeat IPC: 1.92071 cumulative IPC: 1.93606 (Simulation time: 0 hr 1 min 21 sec) 
Heartbeat CPU  0 instructions:   81000000 cycles:   41841804 heartbeat IPC: 1.92058 cumulative IPC: 1.93586 (Simulation time: 0 hr 1 min 22 sec) 
Heartbeat CPU  0 instructions:   82000000 cycles:   42362434 heartbeat IPC: 1.92075 cumulative IPC: 1.93568 (Simulation time: 0 hr 1 min 24 sec) 
Heartbeat CPU  0 instructions:   83000003 cycles:   42883086 heartbeat IPC: 1.92067 cumulative IPC: 1.93550 (Simulation time: 0 hr 1 min 25 sec) 
Heartbeat CPU  0 instructions:   84000000 cycles:   43380357 heartbeat IPC: 2.01097 cumulative IPC: 1.93636 (Simulation time: 0 hr 1 min 27 sec) 
Heartbeat CPU  0 instructions:   85000000 cycles:   43800640 heartbeat IPC: 2.37935 cumulative IPC: 1.94061 (Simulation time: 0 hr 1 min 27 sec) 
Heartbeat CPU  0 instructions:   86000001 cycles:   44220927 heartbeat IPC: 2.37933 cumulative IPC: 1.94478 (Simulation time: 0 hr 1 min 28 sec) 
Heartbeat CPU  0 instructions:   87000003 cycles:   44641228 heartbeat IPC: 2.37925 cumulative IPC: 1.94887 (Simulation time: 0 hr 1 min 29 sec) 
Heartbeat CPU  0 instructions:   88000000 cycles:   45061588 heartbeat IPC: 2.37891 cumulative IPC: 1.95288 (Simulation time: 0 hr 1 min 30 sec) 
Heartbeat CPU  0 instructions:   89000001 cycles:   45481868 heartbeat IPC: 2.37937 cumulative IPC: 1.95682 (Simulation time: 0 hr 1 min 30 sec) 
Heartbeat CPU  0 instructions:   90000001 cycles:   45902147 heartbeat IPC: 2.37937 cumulative IPC: 1.96069 (Simulation time: 0 hr 1 min 31 sec) 
Heartbeat CPU  0 instructions:   91000000 cycles:   46322427 heartbeat IPC: 2.37936 cumulative IPC: 1.96449 (Simulation time: 0 hr 1 min 32 sec) 
Heartbeat CPU  0 instructions:   92000000 cycles:   46742734 heartbeat IPC: 2.37921 cumulative IPC: 1.96822 (Simulation time: 0 hr 1 min 33 sec) 
Heartbeat CPU  0 instructions:   93000003 cycles:   47163067 heartbeat IPC: 2.37907 cumulative IPC: 1.97188 (Simulation time: 0 hr 1 min 34 sec) 
Heartbeat CPU  0 instructions:   94000000 cycles:   47583349 heartbeat IPC: 2.37935 cumulative IPC: 1.97548 (Simulation time: 0 hr 1 min 34 sec) 
Heartbeat CPU  0 instructions:   95000002 cycles:   48003632 heartbeat IPC: 2.37935 cumulative IPC: 1.97902 (Simulation time: 0 hr 1 min 35 sec) 
Heartbeat CPU  0 instructions:   96000000 cycles:   48423927 heartbeat IPC: 2.37928 cumulative IPC: 1.98249 (Simulation time: 0 hr 1 min 36 sec) 
Heartbeat CPU  0 instructions:   97000000 cycles:   48844283 heartbeat IPC: 2.37894 cumulative IPC: 1.98590 (Simulation time: 0 hr 1 min 37 sec) 
Heartbeat CPU  0 instructions:   98000000 cycles:   49264573 heartbeat IPC: 2.37931 cumulative IPC: 1.98926 (Simulation time: 0 hr 1 min 37 sec) 
Heartbeat CPU  0 instructions:   99000003 cycles:   49684868 heartbeat IPC: 2.37929 cumulative IPC: 1.99256 (Simulation time: 0 hr 1 min 38 sec) 
Heartbeat CPU  0 instructions:  100000000 cycles:   50105153 heartbeat IPC: 2.37933 cumulative IPC: 1.99580 (Simulation time: 0 hr 1 min 39 sec) 

Warmup complete CPU  0 instructions:  100000001 cycles:   50105155 (Simulation time: 0 hr 1 min 39 sec) 

Heartbeat CPU  0 instructions:  101000003 cycles:   50836723 heartbeat IPC: 1.36693 cumulative IPC: 1.36693 (Simulation time: 0 hr 1 min 40 sec) 
Heartbeat CPU  0 instructions:  102000003 cycles:   51577151 heartbeat IPC: 1.35057 cumulative IPC: 1.35870 (Simulation time: 0 hr 1 min 42 sec) 
Heartbeat CPU  0 instructions:  103000001 cycles:   52323195 heartbeat IPC: 1.34040 cumulative IPC: 1.35255 (Simulation time: 0 hr 1 min 43 sec) 
Heartbeat CPU  0 instructions:  104000000 cycles:   53064738 heartbeat IPC: 1.34854 cumulative IPC: 1.35154 (Simulation time: 0 hr 1 min 44 sec) 
Heartbeat CPU  0 instructions:  105000000 cycles:   53811678 heartbeat IPC: 1.33880 cumulative IPC: 1.34897 (Simulation time: 0 hr 1 min 45 sec) 
Heartbeat CPU  0 instructions:  106000002 cycles:   54556316 heartbeat IPC: 1.34294 cumulative IPC: 1.34796 (Simulation time: 0 hr 1 min 47 sec) 
Heartbeat CPU  0 instructions:  107000001 cycles:   55292933 heartbeat IPC: 1.35756 cumulative IPC: 1.34933 (Simulation time: 0 hr 1 min 48 sec) 
Heartbeat CPU  0 instructions:  108000000 cycles:   56069948 heartbeat IPC: 1.28698 cumulative IPC: 1.34120 (Simulation time: 0 hr 1 min 49 sec) 
Heartbeat CPU  0 instructions:  109000000 cycles:   56856921 heartbeat IPC: 1.27069 cumulative IPC: 1.33298 (Simulation time: 0 hr 1 min 51 sec) 
Heartbeat CPU  0 instructions:  110000001 cycles:   57633861 heartbeat IPC: 1.28710 cumulative IPC: 1.32825 (Simulation time: 0 hr 1 min 52 sec) 
Heartbeat CPU  0 instructions:  111000001 cycles:   58415184 heartbeat IPC: 1.27988 cumulative IPC: 1.32370 (Simulation time: 0 hr 1 min 53 sec) 
Heartbeat CPU  0 instructions:  112000000 cycles:   59201670 heartbeat IPC: 1.27148 cumulative IPC: 1.31919 (Simulation time: 0 hr 1 min 54 sec) 
Heartbeat CPU  0 instructions:  113000002 cycles:   59983448 heartbeat IPC: 1.27914 cumulative IPC: 1.31602 (Simulation time: 0 hr 1 min 56 sec) 
Heartbeat CPU  0 instructions:  114000002 cycles:   60768625 heartbeat IPC: 1.27360 cumulative IPC: 1.31289 (Simulation time: 0 hr 1 min 57 sec) 
Heartbeat CPU  0 instructions:  115000003 cycles:   61549824 heartbeat IPC: 1.28008 cumulative IPC: 1.31065 (Simulation time: 0 hr 1 min 58 sec) 
Heartbeat CPU  0 instructions:  116000000 cycles:   62331623 heartbeat IPC: 1.27910 cumulative IPC: 1.30864 (Simulation time: 0 hr 1 min 59 sec) 
Heartbeat CPU  0 instructions:  117000000 cycles:   63116810 heartbeat IPC: 1.27358 cumulative IPC: 1.30652 (Simulation time: 0 hr 2 min 1 sec) 
Heartbeat CPU  0 instructions:  118000000 cycles:   63902156 heartbeat IPC: 1.27332 cumulative IPC: 1.30463 (Simulation time: 0 hr 2 min 2 sec) 
Heartbeat CPU  0 instructions:  119000001 cycles:   64693716 heartbeat IPC: 1.26333 cumulative IPC: 1.30239 (Simulation time: 0 hr 2 min 3 sec) 
Heartbeat CPU  0 instructions:  120000000 cycles:   65481828 heartbeat IPC: 1.26885 cumulative IPC: 1.30067 (Simulation time: 0 hr 2 min 5 sec) 
Heartbeat CPU  0 instructions:  121000000 cycles:   66261228 heartbeat IPC: 1.28304 cumulative IPC: 1.29982 (Simulation time: 0 hr 2 min 6 sec) 
Heartbeat CPU  0 instructions:  122000002 cycles:   67047938 heartbeat IPC: 1.27112 cumulative IPC: 1.29849 (Simulation time: 0 hr 2 min 7 sec) 
Heartbeat CPU  0 instructions:  123000002 cycles:   67837428 heartbeat IPC: 1.26664 cumulative IPC: 1.29707 (Simulation time: 0 hr 2 min 8 sec) 
Heartbeat CPU  0 instructions:  124000000 cycles:   68624365 heartbeat IPC: 1.27075 cumulative IPC: 1.29595 (Simulation time: 0 hr 2 min 10 sec) 
Heartbeat CPU  0 instructions:  125000003 cycles:   69410832 heartbeat IPC: 1.27151 cumulative IPC: 1.29496 (Simulation time: 0 hr 2 min 11 sec) 
Heartbeat CPU  0 instructions:  126000000 cycles:   70201967 heartbeat IPC: 1.26400 cumulative IPC: 1.29374 (Simulation time: 0 hr 2 min 12 sec) 
Heartbeat CPU  0 instructions:  127000000 cycles:   70991993 heartbeat IPC: 1.26578 cumulative IPC: 1.29268 (Simulation time: 0 hr 2 min 13 sec) 
Heartbeat CPU  0 instructions:  128000000 cycles:   71774176 heartbeat IPC: 1.27847 cumulative IPC: 1.29217 (Simulation time: 0 hr 2 min 15 sec) 
Heartbeat CPU  0 instructions:  129000001 cycles:   72563486 heartbeat IPC: 1.26693 cumulative IPC: 1.29128 (Simulation time: 0 hr 2 min 16 sec) 
Heartbeat CPU  0 instructions:  130000001 cycles:   73352538 heartbeat IPC: 1.26734 cumulative IPC: 1.29047 (Simulation time: 0 hr 2 min 17 sec) 
Heartbeat CPU  0 instructions:  131000000 cycles:   74557165 heartbeat IPC: 0.83013 cumulative IPC: 1.26779 (Simulation time: 0 hr 2 min 19 sec) 
Heartbeat CPU  0 instructions:  132000000 cycles:   76669652 heartbeat IPC: 0.47338 cumulative IPC: 1.20462 (Simulation time: 0 hr 2 min 21 sec) 
Heartbeat CPU  0 instructions:  133000002 cycles:   78820725 heartbeat IPC: 0.46489 cumulative IPC: 1.14920 (Simulation time: 0 hr 2 min 23 sec) 
Heartbeat CPU  0 instructions:  134000002 cycles:   80968327 heartbeat IPC: 0.46564 cumulative IPC: 1.10164 (Simulation time: 0 hr 2 min 25 sec) 
Heartbeat CPU  0 instructions:  135000000 cycles:   83115081 heartbeat IPC: 0.46582 cumulative IPC: 1.06029 (Simulation time: 0 hr 2 min 27 sec) 
Heartbeat CPU  0 instructions:  136000000 cycles:   85263129 heartbeat IPC: 0.46554 cumulative IPC: 1.02395 (Simulation time: 0 hr 2 min 29 sec) 
Heartbeat CPU  0 instructions:  137000001 cycles:   87405476 heartbeat IPC: 0.46678 cumulative IPC: 0.99195 (Simulation time: 0 hr 2 min 31 sec) 
Heartbeat CPU  0 instructions:  138000000 cycles:   89550073 heartbeat IPC: 0.46629 cumulative IPC: 0.96337 (Simulation time: 0 hr 2 min 33 sec) 
Heartbeat CPU  0 instructions:  139000003 cycles:   91692914 heartbeat IPC: 0.46667 cumulative IPC: 0.93778 (Simulation time: 0 hr 2 min 35 sec) 
Heartbeat CPU  0 instructions:  140000000 cycles:   93836159 heartbeat IPC: 0.46658 cumulative IPC: 0.91468 (Simulation time: 0 hr 2 min 37 sec) 
Heartbeat CPU  0 instructions:  141000001 cycles:   95972047 heartbeat IPC: 0.46819 cumulative IPC: 0.89389 (Simulation time: 0 hr 2 min 39 sec) 
Heartbeat CPU  0 instructions:  142000001 cycles:   98112095 heartbeat IPC: 0.46728 cumulative IPC: 0.87487 (Simulation time: 0 hr 2 min 41 sec) 
Heartbeat CPU  0 instructions:  143000001 cycles:  100250592 heartbeat IPC: 0.46762 cumulative IPC: 0.85751 (Simulation time: 0 hr 2 min 43 sec) 
Heartbeat CPU  0 instructions:  144000000 cycles:  102392248 heartbeat IPC: 0.46693 cumulative IPC: 0.84151 (Simulation time: 0 hr 2 min 44 sec) 
Heartbeat CPU  0 instructions:  145000002 cycles:  104155172 heartbeat IPC: 0.56724 cumulative IPC: 0.83256 (Simulation time: 0 hr 2 min 46 sec) 
Heartbeat CPU  0 instructions:  146000000 cycles:  105306377 heartbeat IPC: 0.86865 cumulative IPC: 0.83331 (Simulation time: 0 hr 2 min 48 sec) 
Heartbeat CPU  0 instructions:  147000000 cycles:  106370512 heartbeat IPC: 0.93973 cumulative IPC: 0.83533 (Simulation time: 0 hr 2 min 49 sec) 
Heartbeat CPU  0 instructions:  148000000 cycles:  107106648 heartbeat IPC: 1.35844 cumulative IPC: 0.84208 (Simulation time: 0 hr 2 min 50 sec) 
Heartbeat CPU  0 instructions:  149000000 cycles:  107879490 heartbeat IPC: 1.29393 cumulative IPC: 0.84813 (Simulation time: 0 hr 2 min 52 sec) 
Heartbeat CPU  0 instructions:  150000001 cycles:  108655491 heartbeat IPC: 1.28866 cumulative IPC: 0.85397 (Simulation time: 0 hr 2 min 53 sec) 
Heartbeat CPU  0 instructions:  151000001 cycles:  109404057 heartbeat IPC: 1.33589 cumulative IPC: 0.86005 (Simulation time: 0 hr 2 min 54 sec) 
Heartbeat CPU  0 instructions:  152000000 cycles:  110164928 heartbeat IPC: 1.31428 cumulative IPC: 0.86580 (Simulation time: 0 hr 2 min 56 sec) 
Heartbeat CPU  0 instructions:  153000001 cycles:  110921879 heartbeat IPC: 1.32109 cumulative IPC: 0.87147 (Simulation time: 0 hr 2 min 57 sec) 
Heartbeat CPU  0 instructions:  154000003 cycles:  111663523 heartbeat IPC: 1.34836 cumulative IPC: 0.87722 (Simulation time: 0 hr 2 min 58 sec) 
Heartbeat CPU  0 instructions:  155000001 cycles:  112412938 heartbeat IPC: 1.33437 cumulative IPC: 0.88271 (Simulation time: 0 hr 3 min 0 sec) 
Heartbeat CPU  0 instructions:  156000000 cycles:  113156901 heartbeat IPC: 1.34415 cumulative IPC: 0.88816 (Simulation time: 0 hr 3 min 1 sec) 
Heartbeat CPU  0 instructions:  157000002 cycles:  113912910 heartbeat IPC: 1.32274 cumulative IPC: 0.89331 (Simulation time: 0 hr 3 min 2 sec) 
Heartbeat CPU  0 instructions:  158000000 cycles:  114653330 heartbeat IPC: 1.35058 cumulative IPC: 0.89855 (Simulation time: 0 hr 3 min 4 sec) 
Heartbeat CPU  0 instructions:  159000002 cycles:  115392769 heartbeat IPC: 1.35238 cumulative IPC: 0.90369 (Simulation time: 0 hr 3 min 5 sec) 
Heartbeat CPU  0 instructions:  160000000 cycles:  116130916 heartbeat IPC: 1.35474 cumulative IPC: 0.90874 (Simulation time: 0 hr 3 min 6 sec) 
Heartbeat CPU  0 instructions:  161000000 cycles:  116877815 heartbeat IPC: 1.33887 cumulative IPC: 0.91355 (Simulation time: 0 hr 3 min 7 sec) 
Heartbeat CPU  0 instructions:  162000002 cycles:  117616962 heartbeat IPC: 1.35291 cumulative IPC: 0.91836 (Simulation time: 0 hr 3 min 9 sec) 
Heartbeat CPU  0 instructions:  163000000 cycles:  118360858 heartbeat IPC: 1.34427 cumulative IPC: 0.92300 (Simulation time: 0 hr 3 min 10 sec) 
Heartbeat CPU  0 instructions:  164000000 cycles:  119105434 heartbeat IPC: 1.34305 cumulative IPC: 0.92753 (Simulation time: 0 hr 3 min 11 sec) 
Heartbeat CPU  0 instructions:  165000001 cycles:  119850330 heartbeat IPC: 1.34247 cumulative IPC: 0.93196 (Simulation time: 0 hr 3 min 13 sec) 
Heartbeat CPU  0 instructions:  166000003 cycles:  120589077 heartbeat IPC: 1.35365 cumulative IPC: 0.93638 (Simulation time: 0 hr 3 min 14 sec) 
Heartbeat CPU  0 instructions:  167000001 cycles:  121336911 heartbeat IPC: 1.33719 cumulative IPC: 0.94059 (Simulation time: 0 hr 3 min 15 sec) 
Heartbeat CPU  0 instructions:  168000000 cycles:  122089380 heartbeat IPC: 1.32896 cumulative IPC: 0.94465 (Simulation time: 0 hr 3 min 17 sec) 
Heartbeat CPU  0 instructions:  169000000 cycles:  122843817 heartbeat IPC: 1.32549 cumulative IPC: 0.94860 (Simulation time: 0 hr 3 min 18 sec) 
Heartbeat CPU  0 instructions:  170000003 cycles:  123602004 heartbeat IPC: 1.31894 cumulative IPC: 0.95242 (Simulation time: 0 hr 3 min 19 sec) 
Heartbeat CPU  0 instructions:  171000001 cycles:  124362653 heartbeat IPC: 1.31466 cumulative IPC: 0.95613 (Simulation time: 0 hr 3 min 21 sec) 
Heartbeat CPU  0 instructions:  172000000 cycles:  125118185 heartbeat IPC: 1.32357 cumulative IPC: 0.95983 (Simulation time: 0 hr 3 min 22 sec) 
Heartbeat CPU  0 instructions:  173000001 cycles:  125886258 heartbeat IPC: 1.30196 cumulative IPC: 0.96330 (Simulation time: 0 hr 3 min 23 sec) 
Heartbeat CPU  0 instructions:  174000000 cycles:  126644281 heartbeat IPC: 1.31922 cumulative IPC: 0.96683 (Simulation time: 0 hr 3 min 25 sec) 
Heartbeat CPU  0 instructions:  175000002 cycles:  127411760 heartbeat IPC: 1.30297 cumulative IPC: 0.97016 (Simulation time: 0 hr 3 min 26 sec) 
Heartbeat CPU  0 instructions:  176000000 cycles:  128170627 heartbeat IPC: 1.31775 cumulative IPC: 0.97354 (Simulation time: 0 hr 3 min 27 sec) 
Heartbeat CPU  0 instructions:  177000002 cycles:  128936622 heartbeat IPC: 1.30549 cumulative IPC: 0.97677 (Simulation time: 0 hr 3 min 29 sec) 
Heartbeat CPU  0 instructions:  178000000 cycles:  129702699 heartbeat IPC: 1.30535 cumulative IPC: 0.97993 (Simulation time: 0 hr 3 min 30 sec) 
Heartbeat CPU  0 instructions:  179000003 cycles:  130469792 heartbeat IPC: 1.30363 cumulative IPC: 0.98302 (Simulation time: 0 hr 3 min 31 sec) 
Heartbeat CPU  0 instructions:  180000000 cycles:  131243632 heartbeat IPC: 1.29225 cumulative IPC: 0.98597 (Simulation time: 0 hr 3 min 33 sec) 
Heartbeat CPU  0 instructions:  181000000 cycles:  132006597 heartbeat IPC: 1.31068 cumulative IPC: 0.98899 (Simulation time: 0 hr 3 min 34 sec) 
Heartbeat CPU  0 instructions:  182000001 cycles:  132774973 heartbeat IPC: 1.30145 cumulative IPC: 0.99190 (Simulation time: 0 hr 3 min 35 sec) 
Heartbeat CPU  0 instructions:  183000000 cycles:  133533594 heartbeat IPC: 1.31818 cumulative IPC: 0.99486 (Simulation time: 0 hr 3 min 37 sec) 
Heartbeat CPU  0 instructions:  184000000 cycles:  134307329 heartbeat IPC: 1.29243 cumulative IPC: 0.99760 (Simulation time: 0 hr 3 min 38 sec) 
Heartbeat CPU  0 instructions:  185000001 cycles:  135071673 heartbeat IPC: 1.30831 cumulative IPC: 1.00039 (Simulation time: 0 hr 3 min 39 sec) 
Heartbeat CPU  0 instructions:  186000002 cycles:  135838326 heartbeat IPC: 1.30437 cumulative IPC: 1.00311 (Simulation time: 0 hr 3 min 41 sec) 
Heartbeat CPU  0 instructions:  187000000 cycles:  136601410 heartbeat IPC: 1.31047 cumulative IPC: 1.00582 (Simulation time: 0 hr 3 min 42 sec) 
Heartbeat CPU  0 instructions:  188000000 cycles:  137371507 heartbeat IPC: 1.29854 cumulative IPC: 1.00841 (Simulation time: 0 hr 3 min 43 sec) 
Heartbeat CPU  0 instructions:  189000001 cycles:  138132183 heartbeat IPC: 1.31462 cumulative IPC: 1.01105 (Simulation time: 0 hr 3 min 45 sec) 
Heartbeat CPU  0 instructions:  190000000 cycles:  138908533 heartbeat IPC: 1.28808 cumulative IPC: 1.01347 (Simulation time: 0 hr 3 min 46 sec) 
Heartbeat CPU  0 instructions:  191000000 cycles:  139679106 heartbeat IPC: 1.29774 cumulative IPC: 1.01592 (Simulation time: 0 hr 3 min 47 sec) 
Heartbeat CPU  0 instructions:  192000000 cycles:  140864530 heartbeat IPC: 0.84358 cumulative IPC: 1.01367 (Simulation time: 0 hr 3 min 49 sec) 
Heartbeat CPU  0 instructions:  193000000 cycles:  142888077 heartbeat IPC: 0.49418 cumulative IPC: 1.00234 (Simulation time: 0 hr 3 min 51 sec) 
Heartbeat CPU  0 instructions:  194000000 cycles:  144936702 heartbeat IPC: 0.48813 cumulative IPC: 0.99123 (Simulation time: 0 hr 3 min 53 sec) 
Heartbeat CPU  0 instructions:  195000000 cycles:  146988259 heartbeat IPC: 0.48743 cumulative IPC: 0.98056 (Simulation time: 0 hr 3 min 55 sec) 
Heartbeat CPU  0 instructions:  196000000 cycles:  149039547 heartbeat IPC: 0.48750 cumulative IPC: 0.97034 (Simulation time: 0 hr 3 min 57 sec) 
Heartbeat CPU  0 instructions:  197000000 cycles:  151091520 heartbeat IPC: 0.48734 cumulative IPC: 0.96053 (Simulation time: 0 hr 3 min 59 sec) 
Heartbeat CPU  0 instructions:  198000000 cycles:  153145543 heartbeat IPC: 0.48685 cumulative IPC: 0.95108 (Simulation time: 0 hr 4 min 1 sec) 
Heartbeat CPU  0 instructions:  199000000 cycles:  155195439 heartbeat IPC: 0.48783 cumulative IPC: 0.94205 (Simulation time: 0 hr 4 min 4 sec) 
Heartbeat CPU  0 instructions:  200000000 cycles:  157246439 heartbeat IPC: 0.48757 cumulative IPC: 0.93335 (Simulation time: 0 hr 4 min 6 sec) 
Finished CPU 0 instructions: 100000000 cycles: 107141297 cumulative IPC: 0.93335 (Simulation time: 0 hr 4 min 6 sec) 

ChampSim completed all CPUs

[ROI Statistics]
Core_0_instructions 100000000
Core_0_cycles 107141297
Core_0_IPC 0.93335

Core_0_branch_prediction_accuracy 99.58952
Core_0_branch_MPKI 0.70683
Core_0_average_ROB_occupancy_at_mispredict 218.78934

Core_0_L1D_total_access 21853942
Core_0_L1D_total_hit 19277694
Core_0_L1D_total_miss 2576248
Core_0_L1D_loads 11713441
Core_0_L1D_load_hit 11188935
Core_0_L1D_load_miss 524506
Core_0_L1D_RFOs 3492976
Core_0_L1D_RFO_hit 3492956
Core_0_L1D_RFO_miss 20
Core_0_L1D_prefetches 6647525
Core_0_L1D_prefetch_hit 4595803
Core_0_L1D_prefetch_miss 2051722
Core_0_L1D_writebacks 0
Core_0_L1D_writeback_hit 0
Core_0_L1D_writeback_miss 0
Core_0_L1D_prefetch_requested 33108074
Core_0_L1D_prefetch_issued 30888106
Core_0_L1D_prefetch_useful 4662879
Core_0_L1D_prefetch_useless 67
Core_0_L1D_prefetch_late 466797
Core_0_L1D_average_miss_latency 20754601.76495

Core_0_L1I_total_access 30942400
Core_0_L1I_total_hit 30942399
Core_0_L1I_total_miss 1
Core_0_L1I_loads 30942400
Core_0_L1I_load_hit 30942399
Core_0_L1I_load_miss 1
Core_0_L1I_RFOs 0
Core_0_L1I_RFO_hit 0
Core_0_L1I_RFO_miss 0
Core_0_L1I_prefetches 0
Core_0_L1I_prefetch_hit 0
Core_0_L1I_prefetch_miss 0
Core_0_L1I_writebacks 0
Core_0_L1I_writeback_hit 0
Core_0_L1I_writeback_miss 0
Core_0_L1I_prefetch_requested 0
Core_0_L1I_prefetch_issued 0
Core_0_L1I_prefetch_useful 0
Core_0_L1I_prefetch_useless 0
Core_0_L1I_prefetch_late 0
Core_0_L1I_average_miss_latency 256.00000

Core_0_L2C_total_access 3621377
Core_0_L2C_total_hit 1045116
Core_0_L2C_total_miss 2576261
Core_0_L2C_loads 57815
Core_0_L2C_load_hit 0
Core_0_L2C_load_miss 57815
Core_0_L2C_RFOs 20
Core_0_L2C_RFO_hit 0
Core_0_L2C_RFO_miss 20
Core_0_L2C_prefetches 2613397
Core_0_L2C_prefetch_hit 94971
Core_0_L2C_prefetch_miss 2518426
Core_0_L2C_writebacks 950145
Core_0_L2C_writeback_hit 950145
Core_0_L2C_writeback_miss 0
Core_0_L2C_prefetch_requested 8641157
Core_0_L2C_prefetch_issued 8641157
Core_0_L2C_prefetch_useful 1
Core_0_L2C_prefetch_useless 5121698
Core_0_L2C_prefetch_late 0
Core_0_L2C_average_miss_latency 229.07386

Core_0_LLC_total_access 3706136
Core_0_LLC_total_hit 1024469
Core_0_LLC_total_miss 2681667
Core_0_LLC_loads 57815
Core_0_LLC_load_hit 2687
Core_0_LLC_load_miss 55128
Core_0_LLC_RFOs 20
Core_0_LLC_RFO_hit 0
Core_0_LLC_RFO_miss 20
Core_0_LLC_prefetches 2705598
Core_0_LLC_prefetch_hit 187574
Core_0_LLC_prefetch_miss 2518024
Core_0_LLC_writebacks 942703
Core_0_LLC_writeback_hit 834208
Core_0_LLC_writeback_miss 108495
Core_0_LLC_prefetch_requested 4596320
Core_0_LLC_prefetch_issued 4518086
Core_0_LLC_prefetch_useful 325
Core_0_LLC_prefetch_useless 5096827
Core_0_LLC_prefetch_late 10
Core_0_LLC_average_miss_latency 213.54300

Core_0_major_page_fault 0
Core_0_minor_page_fault 8199


CPU 0 L2C PC-based stride prefetcher final stats
LLC Next Line Prefetcher Final Stats: none
Channel_0_RQ_row_buffer_hit 1687541
Channel_0_RQ_row_buffer_miss 885632
Channel_0_WQ_row_buffer_hit 228682
Channel_0_WQ_row_buffer_miss 689640
Channel_0_WQ_full 0
Channel_0_dbus_congested 2762079

avg_congested_cycle 11
