*************************************************
   ChampSim Multicore Out-of-Order Simulator
   Last compiled: Jan 18 2024 13:33:55
*************************************************

trace_0 ./traces/482.sphinx3-1100B.champsimtrace.xz
CPU 0 L2C IP-based stride prefetcher
Initialize HawkEye state
LLC Next Line Prefetcher
warmup_instructions 100000000
simulation_instructions 100000000
champsim_seed 260

num_cpus 1
cpu_freq 4000
dram_io_freq 2400
page_size 4096
block_size 64
max_read_per_cycle 8
max_fill_per_cycle 1
dram_channels 1
dram_ranks 1
dram_banks 8
dram_rows 65536
dram_columns 128
dram_row_size 8
dram_size 4096
dram_pages 1048576

fetch_width 6
decode_width 6
exec_width 4
lq_width 2
sq_width 2
retire_width 4
scheduler_size 128
branch_mispredict_penalty 20
rob_size 256
lq_size 72
sq_size 56
num_instr_destinations_sparc 4
num_instr_destinations 2
num_instr_sources 4

itlb_set 16
itlb_way 8
itlb_rq_size 16
itlb_wq_size 16
itlb_pq_size 0
itlb_mshr_size 8
itlb_latency 1

dtlb_set 16
dtlb_way 4
dtlb_rq_size 16
dtlb_wq_size 16
dtlb_pq_size 0
dtlb_mshr_size 8
dtlb_latency 1

stlb_set 128
stlb_way 12
stlb_rq_size 32
stlb_wq_size 32
stlb_pq_size 0
stlb_mshr_size 16
stlb_latency 8

l1i_size 32
l1i_set 64
l1i_way 8
l1i_rq_size 64
l1i_wq_size 64
l1i_pq_size 8
l1i_mshr_size 8
l1i_latency 1

l1d_size 32
l1d_set 64
l1d_way 8
l1d_rq_size 64
l1d_wq_size 64
l1d_pq_size 8
l1d_mshr_size 16
l1d_latency 4

l2c_size 512
l2c_set 1024
l2c_way 8
l2c_rq_size 32
l2c_wq_size 32
l2c_pq_size 16
l2c_mshr_size 32
l2c_latency 10

llc_size 2048
llc_set 2048
llc_way 16
llc_rq_size 32
llc_wq_size 32
llc_pq_size 32
llc_mshr_size 64
llc_latency 20

dram_channel_width 8
dram_wq_size 64
dram_rq_size 64
tRP 15
tRCD 15
tCAS 12.5
dram_dbus_turn_around_time 30
dram_write_high_wm 56
dram_write_low_wm 48
min_dram_writes_per_switch 16
dram_mtps 2400
dram_dbus_return_time 13


Heartbeat CPU  0 instructions:    1000001 cycles:     367555 heartbeat IPC: 2.72068 cumulative IPC: 2.72068 (Simulation time: 0 hr 0 min 1 sec) 
Heartbeat CPU  0 instructions:    2000003 cycles:     794562 heartbeat IPC: 2.34189 cumulative IPC: 2.51711 (Simulation time: 0 hr 0 min 2 sec) 
Heartbeat CPU  0 instructions:    3000001 cycles:    1251890 heartbeat IPC: 2.18661 cumulative IPC: 2.39638 (Simulation time: 0 hr 0 min 3 sec) 
Heartbeat CPU  0 instructions:    4000000 cycles:    1733832 heartbeat IPC: 2.07494 cumulative IPC: 2.30703 (Simulation time: 0 hr 0 min 4 sec) 
Heartbeat CPU  0 instructions:    5000000 cycles:    2175149 heartbeat IPC: 2.26594 cumulative IPC: 2.29869 (Simulation time: 0 hr 0 min 5 sec) 
Heartbeat CPU  0 instructions:    6000001 cycles:    2542258 heartbeat IPC: 2.72399 cumulative IPC: 2.36011 (Simulation time: 0 hr 0 min 6 sec) 
Heartbeat CPU  0 instructions:    7000000 cycles:    2933033 heartbeat IPC: 2.55901 cumulative IPC: 2.38661 (Simulation time: 0 hr 0 min 8 sec) 
Heartbeat CPU  0 instructions:    8000000 cycles:    3391268 heartbeat IPC: 2.18229 cumulative IPC: 2.35900 (Simulation time: 0 hr 0 min 9 sec) 
Heartbeat CPU  0 instructions:    9000000 cycles:    3849026 heartbeat IPC: 2.18456 cumulative IPC: 2.33825 (Simulation time: 0 hr 0 min 10 sec) 
Heartbeat CPU  0 instructions:   10000000 cycles:    4338453 heartbeat IPC: 2.04321 cumulative IPC: 2.30497 (Simulation time: 0 hr 0 min 11 sec) 
Heartbeat CPU  0 instructions:   11000001 cycles:    4709976 heartbeat IPC: 2.69163 cumulative IPC: 2.33547 (Simulation time: 0 hr 0 min 12 sec) 
Heartbeat CPU  0 instructions:   12000000 cycles:    5077016 heartbeat IPC: 2.72450 cumulative IPC: 2.36359 (Simulation time: 0 hr 0 min 13 sec) 
Heartbeat CPU  0 instructions:   13000001 cycles:    5525917 heartbeat IPC: 2.22766 cumulative IPC: 2.35255 (Simulation time: 0 hr 0 min 15 sec) 
Heartbeat CPU  0 instructions:   14000000 cycles:    5983661 heartbeat IPC: 2.18463 cumulative IPC: 2.33970 (Simulation time: 0 hr 0 min 16 sec) 
Heartbeat CPU  0 instructions:   15000000 cycles:    6465491 heartbeat IPC: 2.07542 cumulative IPC: 2.32001 (Simulation time: 0 hr 0 min 17 sec) 
Heartbeat CPU  0 instructions:   16000000 cycles:    6874423 heartbeat IPC: 2.44539 cumulative IPC: 2.32747 (Simulation time: 0 hr 0 min 18 sec) 
Heartbeat CPU  0 instructions:   17000003 cycles:    7241587 heartbeat IPC: 2.72359 cumulative IPC: 2.34755 (Simulation time: 0 hr 0 min 20 sec) 
Heartbeat CPU  0 instructions:   18000003 cycles:    7653214 heartbeat IPC: 2.42938 cumulative IPC: 2.35195 (Simulation time: 0 hr 0 min 21 sec) 
Heartbeat CPU  0 instructions:   19000003 cycles:    8110982 heartbeat IPC: 2.18451 cumulative IPC: 2.34250 (Simulation time: 0 hr 0 min 22 sec) 
Heartbeat CPU  0 instructions:   20000000 cycles:    8578953 heartbeat IPC: 2.13688 cumulative IPC: 2.33129 (Simulation time: 0 hr 0 min 23 sec) 
Heartbeat CPU  0 instructions:   21000002 cycles:    9037144 heartbeat IPC: 2.18250 cumulative IPC: 2.32374 (Simulation time: 0 hr 0 min 24 sec) 
Heartbeat CPU  0 instructions:   22000003 cycles:    9404154 heartbeat IPC: 2.72472 cumulative IPC: 2.33939 (Simulation time: 0 hr 0 min 25 sec) 
Heartbeat CPU  0 instructions:   23000001 cycles:    9784522 heartbeat IPC: 2.62903 cumulative IPC: 2.35065 (Simulation time: 0 hr 0 min 27 sec) 
Heartbeat CPU  0 instructions:   24000000 cycles:   10239608 heartbeat IPC: 2.19738 cumulative IPC: 2.34384 (Simulation time: 0 hr 0 min 28 sec) 
Heartbeat CPU  0 instructions:   25000002 cycles:   10694842 heartbeat IPC: 2.19668 cumulative IPC: 2.33758 (Simulation time: 0 hr 0 min 29 sec) 
Heartbeat CPU  0 instructions:   26000002 cycles:   11173035 heartbeat IPC: 2.09121 cumulative IPC: 2.32703 (Simulation time: 0 hr 0 min 30 sec) 
Heartbeat CPU  0 instructions:   27000001 cycles:   11565340 heartbeat IPC: 2.54903 cumulative IPC: 2.33456 (Simulation time: 0 hr 0 min 31 sec) 
Heartbeat CPU  0 instructions:   28000000 cycles:   11932224 heartbeat IPC: 2.72565 cumulative IPC: 2.34659 (Simulation time: 0 hr 0 min 33 sec) 
Heartbeat CPU  0 instructions:   29000001 cycles:   12368148 heartbeat IPC: 2.29398 cumulative IPC: 2.34473 (Simulation time: 0 hr 0 min 34 sec) 
Heartbeat CPU  0 instructions:   30000003 cycles:   12821467 heartbeat IPC: 2.20596 cumulative IPC: 2.33983 (Simulation time: 0 hr 0 min 35 sec) 
Heartbeat CPU  0 instructions:   31000002 cycles:   13275165 heartbeat IPC: 2.20411 cumulative IPC: 2.33519 (Simulation time: 0 hr 0 min 37 sec) 
Heartbeat CPU  0 instructions:   32000000 cycles:   13757869 heartbeat IPC: 2.07166 cumulative IPC: 2.32594 (Simulation time: 0 hr 0 min 38 sec) 
Heartbeat CPU  0 instructions:   33000003 cycles:   14158116 heartbeat IPC: 2.49846 cumulative IPC: 2.33082 (Simulation time: 0 hr 0 min 39 sec) 
Heartbeat CPU  0 instructions:   34000003 cycles:   14525021 heartbeat IPC: 2.72550 cumulative IPC: 2.34079 (Simulation time: 0 hr 0 min 41 sec) 
Heartbeat CPU  0 instructions:   35000000 cycles:   14951722 heartbeat IPC: 2.34355 cumulative IPC: 2.34087 (Simulation time: 0 hr 0 min 42 sec) 
Heartbeat CPU  0 instructions:   36000000 cycles:   15405148 heartbeat IPC: 2.20543 cumulative IPC: 2.33688 (Simulation time: 0 hr 0 min 43 sec) 
Heartbeat CPU  0 instructions:   37000000 cycles:   15858805 heartbeat IPC: 2.20431 cumulative IPC: 2.33309 (Simulation time: 0 hr 0 min 44 sec) 
Heartbeat CPU  0 instructions:   38000003 cycles:   16346146 heartbeat IPC: 2.05196 cumulative IPC: 2.32471 (Simulation time: 0 hr 0 min 46 sec) 
Heartbeat CPU  0 instructions:   39000001 cycles:   16752497 heartbeat IPC: 2.46092 cumulative IPC: 2.32801 (Simulation time: 0 hr 0 min 47 sec) 
Heartbeat CPU  0 instructions:   40000000 cycles:   17119527 heartbeat IPC: 2.72457 cumulative IPC: 2.33651 (Simulation time: 0 hr 0 min 49 sec) 
Heartbeat CPU  0 instructions:   41000003 cycles:   17539387 heartbeat IPC: 2.38175 cumulative IPC: 2.33760 (Simulation time: 0 hr 0 min 50 sec) 
Heartbeat CPU  0 instructions:   42000000 cycles:   17997019 heartbeat IPC: 2.18516 cumulative IPC: 2.33372 (Simulation time: 0 hr 0 min 52 sec) 
Heartbeat CPU  0 instructions:   43000001 cycles:   18453074 heartbeat IPC: 2.19272 cumulative IPC: 2.33024 (Simulation time: 0 hr 0 min 53 sec) 
Heartbeat CPU  0 instructions:   44000000 cycles:   18942906 heartbeat IPC: 2.04151 cumulative IPC: 2.32277 (Simulation time: 0 hr 0 min 54 sec) 
Heartbeat CPU  0 instructions:   45000002 cycles:   19353921 heartbeat IPC: 2.43301 cumulative IPC: 2.32511 (Simulation time: 0 hr 0 min 55 sec) 
Heartbeat CPU  0 instructions:   46000000 cycles:   19721104 heartbeat IPC: 2.72343 cumulative IPC: 2.33253 (Simulation time: 0 hr 0 min 57 sec) 
Heartbeat CPU  0 instructions:   47000002 cycles:   20133891 heartbeat IPC: 2.42256 cumulative IPC: 2.33437 (Simulation time: 0 hr 0 min 58 sec) 
Heartbeat CPU  0 instructions:   48000000 cycles:   20593151 heartbeat IPC: 2.17741 cumulative IPC: 2.33087 (Simulation time: 0 hr 0 min 59 sec) 
Heartbeat CPU  0 instructions:   49000003 cycles:   21049440 heartbeat IPC: 2.19160 cumulative IPC: 2.32785 (Simulation time: 0 hr 1 min 0 sec) 
Heartbeat CPU  0 instructions:   50000003 cycles:   21559753 heartbeat IPC: 1.95958 cumulative IPC: 2.31914 (Simulation time: 0 hr 1 min 1 sec) 
Heartbeat CPU  0 instructions:   51000002 cycles:   22021187 heartbeat IPC: 2.16716 cumulative IPC: 2.31595 (Simulation time: 0 hr 1 min 2 sec) 
Heartbeat CPU  0 instructions:   52000000 cycles:   22393695 heartbeat IPC: 2.68450 cumulative IPC: 2.32208 (Simulation time: 0 hr 1 min 4 sec) 
Heartbeat CPU  0 instructions:   53000001 cycles:   22760819 heartbeat IPC: 2.72388 cumulative IPC: 2.32856 (Simulation time: 0 hr 1 min 5 sec) 
Heartbeat CPU  0 instructions:   54000001 cycles:   23210015 heartbeat IPC: 2.22620 cumulative IPC: 2.32658 (Simulation time: 0 hr 1 min 6 sec) 
Heartbeat CPU  0 instructions:   55000001 cycles:   23663360 heartbeat IPC: 2.20583 cumulative IPC: 2.32427 (Simulation time: 0 hr 1 min 7 sec) 
Heartbeat CPU  0 instructions:   56000000 cycles:   24120041 heartbeat IPC: 2.18971 cumulative IPC: 2.32172 (Simulation time: 0 hr 1 min 9 sec) 
Heartbeat CPU  0 instructions:   57000003 cycles:   24604781 heartbeat IPC: 2.06297 cumulative IPC: 2.31662 (Simulation time: 0 hr 1 min 10 sec) 
Heartbeat CPU  0 instructions:   58000001 cycles:   24997466 heartbeat IPC: 2.54657 cumulative IPC: 2.32024 (Simulation time: 0 hr 1 min 11 sec) 
Heartbeat CPU  0 instructions:   59000001 cycles:   25364413 heartbeat IPC: 2.72519 cumulative IPC: 2.32609 (Simulation time: 0 hr 1 min 12 sec) 
Heartbeat CPU  0 instructions:   60000000 cycles:   25803359 heartbeat IPC: 2.27818 cumulative IPC: 2.32528 (Simulation time: 0 hr 1 min 13 sec) 
Heartbeat CPU  0 instructions:   61000000 cycles:   26259089 heartbeat IPC: 2.19428 cumulative IPC: 2.32301 (Simulation time: 0 hr 1 min 15 sec) 
Heartbeat CPU  0 instructions:   62000000 cycles:   26716203 heartbeat IPC: 2.18764 cumulative IPC: 2.32069 (Simulation time: 0 hr 1 min 16 sec) 
Heartbeat CPU  0 instructions:   63000000 cycles:   27203004 heartbeat IPC: 2.05423 cumulative IPC: 2.31592 (Simulation time: 0 hr 1 min 17 sec) 
Heartbeat CPU  0 instructions:   64000000 cycles:   27604025 heartbeat IPC: 2.49363 cumulative IPC: 2.31850 (Simulation time: 0 hr 1 min 18 sec) 
Heartbeat CPU  0 instructions:   65000000 cycles:   27971095 heartbeat IPC: 2.72428 cumulative IPC: 2.32383 (Simulation time: 0 hr 1 min 19 sec) 
Heartbeat CPU  0 instructions:   66000001 cycles:   28395914 heartbeat IPC: 2.35395 cumulative IPC: 2.32428 (Simulation time: 0 hr 1 min 20 sec) 
Heartbeat CPU  0 instructions:   67000003 cycles:   28855252 heartbeat IPC: 2.17705 cumulative IPC: 2.32193 (Simulation time: 0 hr 1 min 21 sec) 
Heartbeat CPU  0 instructions:   68000000 cycles:   29308978 heartbeat IPC: 2.20397 cumulative IPC: 2.32011 (Simulation time: 0 hr 1 min 23 sec) 
Heartbeat CPU  0 instructions:   69000001 cycles:   29795629 heartbeat IPC: 2.05486 cumulative IPC: 2.31578 (Simulation time: 0 hr 1 min 24 sec) 
Heartbeat CPU  0 instructions:   70000001 cycles:   30203787 heartbeat IPC: 2.45003 cumulative IPC: 2.31759 (Simulation time: 0 hr 1 min 25 sec) 
Heartbeat CPU  0 instructions:   71000001 cycles:   30571005 heartbeat IPC: 2.72318 cumulative IPC: 2.32246 (Simulation time: 0 hr 1 min 26 sec) 
Heartbeat CPU  0 instructions:   72000000 cycles:   30986364 heartbeat IPC: 2.40755 cumulative IPC: 2.32360 (Simulation time: 0 hr 1 min 27 sec) 
Heartbeat CPU  0 instructions:   73000000 cycles:   31442791 heartbeat IPC: 2.19093 cumulative IPC: 2.32168 (Simulation time: 0 hr 1 min 28 sec) 
Heartbeat CPU  0 instructions:   74000002 cycles:   31897948 heartbeat IPC: 2.19705 cumulative IPC: 2.31990 (Simulation time: 0 hr 1 min 29 sec) 
Heartbeat CPU  0 instructions:   75000002 cycles:   32386096 heartbeat IPC: 2.04856 cumulative IPC: 2.31581 (Simulation time: 0 hr 1 min 31 sec) 
Heartbeat CPU  0 instructions:   76000000 cycles:   32803678 heartbeat IPC: 2.39473 cumulative IPC: 2.31681 (Simulation time: 0 hr 1 min 32 sec) 
Heartbeat CPU  0 instructions:   77000003 cycles:   33170856 heartbeat IPC: 2.72348 cumulative IPC: 2.32131 (Simulation time: 0 hr 1 min 33 sec) 
Heartbeat CPU  0 instructions:   78000002 cycles:   33578740 heartbeat IPC: 2.45167 cumulative IPC: 2.32290 (Simulation time: 0 hr 1 min 34 sec) 
Heartbeat CPU  0 instructions:   79000000 cycles:   34033549 heartbeat IPC: 2.19872 cumulative IPC: 2.32124 (Simulation time: 0 hr 1 min 35 sec) 
Heartbeat CPU  0 instructions:   80000000 cycles:   34490188 heartbeat IPC: 2.18991 cumulative IPC: 2.31950 (Simulation time: 0 hr 1 min 36 sec) 
Heartbeat CPU  0 instructions:   81000001 cycles:   34948865 heartbeat IPC: 2.18019 cumulative IPC: 2.31767 (Simulation time: 0 hr 1 min 37 sec) 
Heartbeat CPU  0 instructions:   82000001 cycles:   35434529 heartbeat IPC: 2.05904 cumulative IPC: 2.31413 (Simulation time: 0 hr 1 min 38 sec) 
Heartbeat CPU  0 instructions:   83000001 cycles:   35805541 heartbeat IPC: 2.69533 cumulative IPC: 2.31808 (Simulation time: 0 hr 1 min 40 sec) 
Heartbeat CPU  0 instructions:   84000000 cycles:   36173481 heartbeat IPC: 2.71783 cumulative IPC: 2.32214 (Simulation time: 0 hr 1 min 41 sec) 
Heartbeat CPU  0 instructions:   85000003 cycles:   36628770 heartbeat IPC: 2.19641 cumulative IPC: 2.32058 (Simulation time: 0 hr 1 min 42 sec) 
Heartbeat CPU  0 instructions:   86000001 cycles:   37084042 heartbeat IPC: 2.19648 cumulative IPC: 2.31906 (Simulation time: 0 hr 1 min 43 sec) 
Heartbeat CPU  0 instructions:   87000003 cycles:   37540905 heartbeat IPC: 2.18884 cumulative IPC: 2.31747 (Simulation time: 0 hr 1 min 44 sec) 
Heartbeat CPU  0 instructions:   88000000 cycles:   38030146 heartbeat IPC: 2.04398 cumulative IPC: 2.31395 (Simulation time: 0 hr 1 min 45 sec) 
Heartbeat CPU  0 instructions:   89000002 cycles:   38432312 heartbeat IPC: 2.48654 cumulative IPC: 2.31576 (Simulation time: 0 hr 1 min 46 sec) 
Heartbeat CPU  0 instructions:   90000002 cycles:   38799461 heartbeat IPC: 2.72369 cumulative IPC: 2.31962 (Simulation time: 0 hr 1 min 47 sec) 
Heartbeat CPU  0 instructions:   91000002 cycles:   39220155 heartbeat IPC: 2.37702 cumulative IPC: 2.32024 (Simulation time: 0 hr 1 min 49 sec) 
Heartbeat CPU  0 instructions:   92000000 cycles:   39673375 heartbeat IPC: 2.20643 cumulative IPC: 2.31894 (Simulation time: 0 hr 1 min 50 sec) 
Heartbeat CPU  0 instructions:   93000002 cycles:   40129667 heartbeat IPC: 2.19158 cumulative IPC: 2.31749 (Simulation time: 0 hr 1 min 51 sec) 
Heartbeat CPU  0 instructions:   94000001 cycles:   40617422 heartbeat IPC: 2.05021 cumulative IPC: 2.31428 (Simulation time: 0 hr 1 min 52 sec) 
Heartbeat CPU  0 instructions:   95000000 cycles:   40989059 heartbeat IPC: 2.69079 cumulative IPC: 2.31769 (Simulation time: 0 hr 1 min 53 sec) 
Heartbeat CPU  0 instructions:   96000000 cycles:   41356131 heartbeat IPC: 2.72426 cumulative IPC: 2.32130 (Simulation time: 0 hr 1 min 54 sec) 
Heartbeat CPU  0 instructions:   97000001 cycles:   41801794 heartbeat IPC: 2.24385 cumulative IPC: 2.32047 (Simulation time: 0 hr 1 min 55 sec) 
Heartbeat CPU  0 instructions:   98000002 cycles:   42257986 heartbeat IPC: 2.19206 cumulative IPC: 2.31909 (Simulation time: 0 hr 1 min 56 sec) 
Heartbeat CPU  0 instructions:   99000003 cycles:   42743676 heartbeat IPC: 2.05893 cumulative IPC: 2.31613 (Simulation time: 0 hr 1 min 58 sec) 
Heartbeat CPU  0 instructions:  100000000 cycles:   43287375 heartbeat IPC: 1.83925 cumulative IPC: 2.31014 (Simulation time: 0 hr 1 min 59 sec) 

Warmup complete CPU  0 instructions:  100000001 cycles:   43287376 (Simulation time: 0 hr 1 min 59 sec) 

Heartbeat CPU  0 instructions:  101000001 cycles:   44149737 heartbeat IPC: 1.15961 cumulative IPC: 1.15961 (Simulation time: 0 hr 2 min 0 sec) 
Heartbeat CPU  0 instructions:  102000002 cycles:   44708168 heartbeat IPC: 1.79073 cumulative IPC: 1.40767 (Simulation time: 0 hr 2 min 1 sec) 
Heartbeat CPU  0 instructions:  103000000 cycles:   45383586 heartbeat IPC: 1.48056 cumulative IPC: 1.43115 (Simulation time: 0 hr 2 min 3 sec) 
Heartbeat CPU  0 instructions:  104000000 cycles:   46325689 heartbeat IPC: 1.06146 cumulative IPC: 1.31652 (Simulation time: 0 hr 2 min 4 sec) 
Heartbeat CPU  0 instructions:  105000000 cycles:   47247666 heartbeat IPC: 1.08463 cumulative IPC: 1.26253 (Simulation time: 0 hr 2 min 5 sec) 
Heartbeat CPU  0 instructions:  106000003 cycles:   47884136 heartbeat IPC: 1.57117 cumulative IPC: 1.30527 (Simulation time: 0 hr 2 min 7 sec) 
Heartbeat CPU  0 instructions:  107000000 cycles:   48424105 heartbeat IPC: 1.85195 cumulative IPC: 1.36273 (Simulation time: 0 hr 2 min 8 sec) 
Heartbeat CPU  0 instructions:  108000000 cycles:   49279011 heartbeat IPC: 1.16972 cumulative IPC: 1.33519 (Simulation time: 0 hr 2 min 9 sec) 
Heartbeat CPU  0 instructions:  109000000 cycles:   50229991 heartbeat IPC: 1.05155 cumulative IPC: 1.29634 (Simulation time: 0 hr 2 min 10 sec) 
Heartbeat CPU  0 instructions:  110000001 cycles:   51012312 heartbeat IPC: 1.27825 cumulative IPC: 1.29451 (Simulation time: 0 hr 2 min 12 sec) 
Heartbeat CPU  0 instructions:  111000001 cycles:   51556779 heartbeat IPC: 1.83666 cumulative IPC: 1.33020 (Simulation time: 0 hr 2 min 13 sec) 
Heartbeat CPU  0 instructions:  112000000 cycles:   52226137 heartbeat IPC: 1.49397 cumulative IPC: 1.34247 (Simulation time: 0 hr 2 min 14 sec) 
Heartbeat CPU  0 instructions:  113000003 cycles:   53146188 heartbeat IPC: 1.08690 cumulative IPC: 1.31862 (Simulation time: 0 hr 2 min 15 sec) 
Heartbeat CPU  0 instructions:  114000001 cycles:   54064008 heartbeat IPC: 1.08954 cumulative IPC: 1.29911 (Simulation time: 0 hr 2 min 17 sec) 
Heartbeat CPU  0 instructions:  115000002 cycles:   54847101 heartbeat IPC: 1.27699 cumulative IPC: 1.29761 (Simulation time: 0 hr 2 min 18 sec) 
Heartbeat CPU  0 instructions:  116000000 cycles:   55394950 heartbeat IPC: 1.82532 cumulative IPC: 1.32149 (Simulation time: 0 hr 2 min 19 sec) 
Heartbeat CPU  0 instructions:  117000000 cycles:   56244674 heartbeat IPC: 1.17685 cumulative IPC: 1.31200 (Simulation time: 0 hr 2 min 21 sec) 
Heartbeat CPU  0 instructions:  118000003 cycles:   57130694 heartbeat IPC: 1.12865 cumulative IPC: 1.30027 (Simulation time: 0 hr 2 min 22 sec) 
Heartbeat CPU  0 instructions:  119000002 cycles:   58053476 heartbeat IPC: 1.08368 cumulative IPC: 1.28673 (Simulation time: 0 hr 2 min 23 sec) 
Heartbeat CPU  0 instructions:  120000000 cycles:   59161118 heartbeat IPC: 0.90282 cumulative IPC: 1.25994 (Simulation time: 0 hr 2 min 25 sec) 
Heartbeat CPU  0 instructions:  121000000 cycles:   60007212 heartbeat IPC: 1.18190 cumulative IPC: 1.25599 (Simulation time: 0 hr 2 min 26 sec) 
Heartbeat CPU  0 instructions:  122000001 cycles:   60567596 heartbeat IPC: 1.78449 cumulative IPC: 1.27313 (Simulation time: 0 hr 2 min 28 sec) 
Heartbeat CPU  0 instructions:  123000001 cycles:   61246516 heartbeat IPC: 1.47293 cumulative IPC: 1.28068 (Simulation time: 0 hr 2 min 30 sec) 
Heartbeat CPU  0 instructions:  124000000 cycles:   62167035 heartbeat IPC: 1.08634 cumulative IPC: 1.27121 (Simulation time: 0 hr 2 min 31 sec) 
Heartbeat CPU  0 instructions:  125000001 cycles:   63068651 heartbeat IPC: 1.10912 cumulative IPC: 1.26382 (Simulation time: 0 hr 2 min 33 sec) 
Heartbeat CPU  0 instructions:  126000003 cycles:   63998826 heartbeat IPC: 1.07507 cumulative IPC: 1.25534 (Simulation time: 0 hr 2 min 34 sec) 
Heartbeat CPU  0 instructions:  127000000 cycles:   65014983 heartbeat IPC: 0.98410 cumulative IPC: 1.24266 (Simulation time: 0 hr 2 min 36 sec) 
Heartbeat CPU  0 instructions:  128000000 cycles:   65594627 heartbeat IPC: 1.72520 cumulative IPC: 1.25520 (Simulation time: 0 hr 2 min 37 sec) 
Heartbeat CPU  0 instructions:  129000000 cycles:   66180886 heartbeat IPC: 1.70573 cumulative IPC: 1.26673 (Simulation time: 0 hr 2 min 38 sec) 
Heartbeat CPU  0 instructions:  130000000 cycles:   67117079 heartbeat IPC: 1.06816 cumulative IPC: 1.25893 (Simulation time: 0 hr 2 min 40 sec) 
Heartbeat CPU  0 instructions:  131000002 cycles:   68034203 heartbeat IPC: 1.09037 cumulative IPC: 1.25269 (Simulation time: 0 hr 2 min 41 sec) 
Heartbeat CPU  0 instructions:  132000000 cycles:   69059237 heartbeat IPC: 0.97558 cumulative IPC: 1.24166 (Simulation time: 0 hr 2 min 43 sec) 
Heartbeat CPU  0 instructions:  133000000 cycles:   69795962 heartbeat IPC: 1.35736 cumulative IPC: 1.24488 (Simulation time: 0 hr 2 min 44 sec) 
Heartbeat CPU  0 instructions:  134000002 cycles:   70358662 heartbeat IPC: 1.77715 cumulative IPC: 1.25594 (Simulation time: 0 hr 2 min 45 sec) 
Heartbeat CPU  0 instructions:  135000001 cycles:   71110802 heartbeat IPC: 1.32954 cumulative IPC: 1.25793 (Simulation time: 0 hr 2 min 47 sec) 
Heartbeat CPU  0 instructions:  136000000 cycles:   72041059 heartbeat IPC: 1.07497 cumulative IPC: 1.25201 (Simulation time: 0 hr 2 min 48 sec) 
Heartbeat CPU  0 instructions:  137000002 cycles:   73039298 heartbeat IPC: 1.00177 cumulative IPC: 1.24362 (Simulation time: 0 hr 2 min 50 sec) 
Heartbeat CPU  0 instructions:  138000002 cycles:   73734117 heartbeat IPC: 1.43922 cumulative IPC: 1.24808 (Simulation time: 0 hr 2 min 51 sec) 
Heartbeat CPU  0 instructions:  139000002 cycles:   74287365 heartbeat IPC: 1.80751 cumulative IPC: 1.25806 (Simulation time: 0 hr 2 min 53 sec) 
Heartbeat CPU  0 instructions:  140000000 cycles:   75074281 heartbeat IPC: 1.27078 cumulative IPC: 1.25838 (Simulation time: 0 hr 2 min 54 sec) 
Heartbeat CPU  0 instructions:  141000000 cycles:   75991234 heartbeat IPC: 1.09057 cumulative IPC: 1.25367 (Simulation time: 0 hr 2 min 56 sec) 
Heartbeat CPU  0 instructions:  142000001 cycles:   76949562 heartbeat IPC: 1.04349 cumulative IPC: 1.24769 (Simulation time: 0 hr 2 min 57 sec) 
Heartbeat CPU  0 instructions:  143000003 cycles:   77574281 heartbeat IPC: 1.60072 cumulative IPC: 1.25412 (Simulation time: 0 hr 2 min 59 sec) 
Heartbeat CPU  0 instructions:  144000000 cycles:   78124871 heartbeat IPC: 1.81623 cumulative IPC: 1.26301 (Simulation time: 0 hr 3 min 0 sec) 
Heartbeat CPU  0 instructions:  145000002 cycles:   79003665 heartbeat IPC: 1.13793 cumulative IPC: 1.25993 (Simulation time: 0 hr 3 min 1 sec) 
Heartbeat CPU  0 instructions:  146000002 cycles:   79954867 heartbeat IPC: 1.05130 cumulative IPC: 1.25452 (Simulation time: 0 hr 3 min 3 sec) 
Heartbeat CPU  0 instructions:  147000002 cycles:   80831246 heartbeat IPC: 1.14106 cumulative IPC: 1.25187 (Simulation time: 0 hr 3 min 4 sec) 
Heartbeat CPU  0 instructions:  148000000 cycles:   81386739 heartbeat IPC: 1.80020 cumulative IPC: 1.25986 (Simulation time: 0 hr 3 min 5 sec) 
Heartbeat CPU  0 instructions:  149000000 cycles:   82017313 heartbeat IPC: 1.58586 cumulative IPC: 1.26517 (Simulation time: 0 hr 3 min 7 sec) 
Heartbeat CPU  0 instructions:  150000003 cycles:   82939434 heartbeat IPC: 1.08446 cumulative IPC: 1.26097 (Simulation time: 0 hr 3 min 8 sec) 
Heartbeat CPU  0 instructions:  151000002 cycles:   84021218 heartbeat IPC: 0.92440 cumulative IPC: 1.25203 (Simulation time: 0 hr 3 min 9 sec) 
Heartbeat CPU  0 instructions:  152000000 cycles:   84900133 heartbeat IPC: 1.13776 cumulative IPC: 1.24962 (Simulation time: 0 hr 3 min 11 sec) 
Heartbeat CPU  0 instructions:  153000001 cycles:   85612222 heartbeat IPC: 1.40432 cumulative IPC: 1.25222 (Simulation time: 0 hr 3 min 12 sec) 
Heartbeat CPU  0 instructions:  154000002 cycles:   86167604 heartbeat IPC: 1.80056 cumulative IPC: 1.25932 (Simulation time: 0 hr 3 min 13 sec) 
Heartbeat CPU  0 instructions:  155000003 cycles:   86909943 heartbeat IPC: 1.34709 cumulative IPC: 1.26082 (Simulation time: 0 hr 3 min 15 sec) 
Heartbeat CPU  0 instructions:  156000000 cycles:   87840055 heartbeat IPC: 1.07514 cumulative IPC: 1.25694 (Simulation time: 0 hr 3 min 16 sec) 
Heartbeat CPU  0 instructions:  157000003 cycles:   88795602 heartbeat IPC: 1.04652 cumulative IPC: 1.25252 (Simulation time: 0 hr 3 min 17 sec) 
Heartbeat CPU  0 instructions:  158000003 cycles:   89387249 heartbeat IPC: 1.69020 cumulative IPC: 1.25814 (Simulation time: 0 hr 3 min 19 sec) 
Heartbeat CPU  0 instructions:  159000000 cycles:   89937337 heartbeat IPC: 1.81789 cumulative IPC: 1.26474 (Simulation time: 0 hr 3 min 20 sec) 
Heartbeat CPU  0 instructions:  160000000 cycles:   90868281 heartbeat IPC: 1.07418 cumulative IPC: 1.26101 (Simulation time: 0 hr 3 min 21 sec) 
Heartbeat CPU  0 instructions:  161000000 cycles:   91877425 heartbeat IPC: 0.99094 cumulative IPC: 1.25540 (Simulation time: 0 hr 3 min 23 sec) 
Heartbeat CPU  0 instructions:  162000003 cycles:   92603298 heartbeat IPC: 1.37766 cumulative IPC: 1.25720 (Simulation time: 0 hr 3 min 24 sec) 
Heartbeat CPU  0 instructions:  163000002 cycles:   93153865 heartbeat IPC: 1.81631 cumulative IPC: 1.26337 (Simulation time: 0 hr 3 min 25 sec) 
Heartbeat CPU  0 instructions:  164000000 cycles:   93875627 heartbeat IPC: 1.38550 cumulative IPC: 1.26512 (Simulation time: 0 hr 3 min 27 sec) 
Heartbeat CPU  0 instructions:  165000000 cycles:   94799769 heartbeat IPC: 1.08208 cumulative IPC: 1.26183 (Simulation time: 0 hr 3 min 28 sec) 
Heartbeat CPU  0 instructions:  166000002 cycles:   95751482 heartbeat IPC: 1.05074 cumulative IPC: 1.25800 (Simulation time: 0 hr 3 min 29 sec) 
Heartbeat CPU  0 instructions:  167000001 cycles:   96354790 heartbeat IPC: 1.65753 cumulative IPC: 1.26254 (Simulation time: 0 hr 3 min 31 sec) 
Heartbeat CPU  0 instructions:  168000000 cycles:   96907087 heartbeat IPC: 1.81062 cumulative IPC: 1.26819 (Simulation time: 0 hr 3 min 32 sec) 
Heartbeat CPU  0 instructions:  169000000 cycles:   97833391 heartbeat IPC: 1.07956 cumulative IPC: 1.26499 (Simulation time: 0 hr 3 min 33 sec) 
Heartbeat CPU  0 instructions:  170000000 cycles:   98823625 heartbeat IPC: 1.00986 cumulative IPC: 1.26044 (Simulation time: 0 hr 3 min 35 sec) 
Heartbeat CPU  0 instructions:  171000001 cycles:   99566042 heartbeat IPC: 1.34695 cumulative IPC: 1.26158 (Simulation time: 0 hr 3 min 36 sec) 
Heartbeat CPU  0 instructions:  172000000 cycles:  100118119 heartbeat IPC: 1.81134 cumulative IPC: 1.26692 (Simulation time: 0 hr 3 min 37 sec) 
Heartbeat CPU  0 instructions:  173000001 cycles:  100835018 heartbeat IPC: 1.39490 cumulative IPC: 1.26851 (Simulation time: 0 hr 3 min 38 sec) 
Heartbeat CPU  0 instructions:  174000000 cycles:  101772206 heartbeat IPC: 1.06702 cumulative IPC: 1.26529 (Simulation time: 0 hr 3 min 40 sec) 
Heartbeat CPU  0 instructions:  175000002 cycles:  102740756 heartbeat IPC: 1.03247 cumulative IPC: 1.26149 (Simulation time: 0 hr 3 min 41 sec) 
Heartbeat CPU  0 instructions:  176000000 cycles:  103343196 heartbeat IPC: 1.65991 cumulative IPC: 1.26549 (Simulation time: 0 hr 3 min 42 sec) 
Heartbeat CPU  0 instructions:  177000000 cycles:  103894548 heartbeat IPC: 1.81372 cumulative IPC: 1.27048 (Simulation time: 0 hr 3 min 44 sec) 
Heartbeat CPU  0 instructions:  178000003 cycles:  104805996 heartbeat IPC: 1.09716 cumulative IPC: 1.26791 (Simulation time: 0 hr 3 min 45 sec) 
Heartbeat CPU  0 instructions:  179000000 cycles:  105828096 heartbeat IPC: 0.97837 cumulative IPC: 1.26318 (Simulation time: 0 hr 3 min 46 sec) 
Heartbeat CPU  0 instructions:  180000000 cycles:  106570475 heartbeat IPC: 1.34702 cumulative IPC: 1.26416 (Simulation time: 0 hr 3 min 48 sec) 
Heartbeat CPU  0 instructions:  181000002 cycles:  107126951 heartbeat IPC: 1.79703 cumulative IPC: 1.26881 (Simulation time: 0 hr 3 min 49 sec) 
Heartbeat CPU  0 instructions:  182000002 cycles:  107837771 heartbeat IPC: 1.40683 cumulative IPC: 1.27033 (Simulation time: 0 hr 3 min 50 sec) 
Heartbeat CPU  0 instructions:  183000002 cycles:  108741265 heartbeat IPC: 1.10681 cumulative IPC: 1.26807 (Simulation time: 0 hr 3 min 52 sec) 
Heartbeat CPU  0 instructions:  184000000 cycles:  109692603 heartbeat IPC: 1.05115 cumulative IPC: 1.26496 (Simulation time: 0 hr 3 min 53 sec) 
Heartbeat CPU  0 instructions:  185000003 cycles:  110297552 heartbeat IPC: 1.65304 cumulative IPC: 1.26846 (Simulation time: 0 hr 3 min 54 sec) 
Heartbeat CPU  0 instructions:  186000002 cycles:  110845149 heartbeat IPC: 1.82616 cumulative IPC: 1.27298 (Simulation time: 0 hr 3 min 56 sec) 
Heartbeat CPU  0 instructions:  187000002 cycles:  111758186 heartbeat IPC: 1.09525 cumulative IPC: 1.27061 (Simulation time: 0 hr 3 min 57 sec) 
Heartbeat CPU  0 instructions:  188000000 cycles:  112780878 heartbeat IPC: 0.97781 cumulative IPC: 1.26631 (Simulation time: 0 hr 3 min 59 sec) 
Heartbeat CPU  0 instructions:  189000003 cycles:  113536991 heartbeat IPC: 1.32256 cumulative IPC: 1.26691 (Simulation time: 0 hr 4 min 0 sec) 
Heartbeat CPU  0 instructions:  190000000 cycles:  114098285 heartbeat IPC: 1.78159 cumulative IPC: 1.27099 (Simulation time: 0 hr 4 min 1 sec) 
Heartbeat CPU  0 instructions:  191000001 cycles:  114808599 heartbeat IPC: 1.40783 cumulative IPC: 1.27235 (Simulation time: 0 hr 4 min 3 sec) 
Heartbeat CPU  0 instructions:  192000000 cycles:  115719982 heartbeat IPC: 1.09723 cumulative IPC: 1.27015 (Simulation time: 0 hr 4 min 4 sec) 
Heartbeat CPU  0 instructions:  193000002 cycles:  116683217 heartbeat IPC: 1.03817 cumulative IPC: 1.26710 (Simulation time: 0 hr 4 min 5 sec) 
Heartbeat CPU  0 instructions:  194000000 cycles:  117284788 heartbeat IPC: 1.66231 cumulative IPC: 1.27031 (Simulation time: 0 hr 4 min 7 sec) 
Heartbeat CPU  0 instructions:  195000001 cycles:  117834122 heartbeat IPC: 1.82039 cumulative IPC: 1.27437 (Simulation time: 0 hr 4 min 8 sec) 
Heartbeat CPU  0 instructions:  196000000 cycles:  118736595 heartbeat IPC: 1.10807 cumulative IPC: 1.27238 (Simulation time: 0 hr 4 min 9 sec) 
Heartbeat CPU  0 instructions:  197000002 cycles:  119759555 heartbeat IPC: 0.97756 cumulative IPC: 1.26844 (Simulation time: 0 hr 4 min 11 sec) 
Heartbeat CPU  0 instructions:  198000000 cycles:  120499845 heartbeat IPC: 1.35082 cumulative IPC: 1.26923 (Simulation time: 0 hr 4 min 12 sec) 
Heartbeat CPU  0 instructions:  199000003 cycles:  121054118 heartbeat IPC: 1.80417 cumulative IPC: 1.27304 (Simulation time: 0 hr 4 min 13 sec) 
Heartbeat CPU  0 instructions:  200000000 cycles:  121755539 heartbeat IPC: 1.42567 cumulative IPC: 1.27440 (Simulation time: 0 hr 4 min 14 sec) 
Finished CPU 0 instructions: 100000003 cycles: 78468171 cumulative IPC: 1.27440 (Simulation time: 0 hr 4 min 14 sec) 

ChampSim completed all CPUs

[ROI Statistics]
Core_0_instructions 100000003
Core_0_cycles 78468171
Core_0_IPC 1.27440

Core_0_branch_prediction_accuracy 97.76309
Core_0_branch_MPKI 1.93474
Core_0_average_ROB_occupancy_at_mispredict 143.03157

Core_0_L1D_total_access 21939459
Core_0_L1D_total_hit 20168988
Core_0_L1D_total_miss 1770471
Core_0_L1D_loads 14773695
Core_0_L1D_load_hit 14478467
Core_0_L1D_load_miss 295228
Core_0_L1D_RFOs 1335419
Core_0_L1D_RFO_hit 1246351
Core_0_L1D_RFO_miss 89068
Core_0_L1D_prefetches 5830345
Core_0_L1D_prefetch_hit 4444170
Core_0_L1D_prefetch_miss 1386175
Core_0_L1D_writebacks 0
Core_0_L1D_writeback_hit 0
Core_0_L1D_writeback_miss 0
Core_0_L1D_prefetch_requested 14465471
Core_0_L1D_prefetch_issued 13824745
Core_0_L1D_prefetch_useful 2112374
Core_0_L1D_prefetch_useless 704458
Core_0_L1D_prefetch_late 18407
Core_0_L1D_average_miss_latency 628328.39611

Core_0_L1I_total_access 24295695
Core_0_L1I_total_hit 24295394
Core_0_L1I_total_miss 301
Core_0_L1I_loads 24295695
Core_0_L1I_load_hit 24295394
Core_0_L1I_load_miss 301
Core_0_L1I_RFOs 0
Core_0_L1I_RFO_hit 0
Core_0_L1I_RFO_miss 0
Core_0_L1I_prefetches 0
Core_0_L1I_prefetch_hit 0
Core_0_L1I_prefetch_miss 0
Core_0_L1I_writebacks 0
Core_0_L1I_writeback_hit 0
Core_0_L1I_writeback_miss 0
Core_0_L1I_prefetch_requested 0
Core_0_L1I_prefetch_issued 0
Core_0_L1I_prefetch_useful 0
Core_0_L1I_prefetch_useless 0
Core_0_L1I_prefetch_late 0
Core_0_L1I_average_miss_latency 194.82392

Core_0_L2C_total_access 3847137
Core_0_L2C_total_hit 2401048
Core_0_L2C_total_miss 1446089
Core_0_L2C_loads 281841
Core_0_L2C_load_hit 166383
Core_0_L2C_load_miss 115458
Core_0_L2C_RFOs 89041
Core_0_L2C_RFO_hit 9981
Core_0_L2C_RFO_miss 79060
Core_0_L2C_prefetches 3364065
Core_0_L2C_prefetch_hit 2112754
Core_0_L2C_prefetch_miss 1251311
Core_0_L2C_writebacks 112190
Core_0_L2C_writeback_hit 111930
Core_0_L2C_writeback_miss 260
Core_0_L2C_prefetch_requested 5253012
Core_0_L2C_prefetch_issued 5252622
Core_0_L2C_prefetch_useful 58196
Core_0_L2C_prefetch_useless 2467213
Core_0_L2C_prefetch_late 66
Core_0_L2C_average_miss_latency 118.46399

Core_0_LLC_total_access 2080401
Core_0_LLC_total_hit 887372
Core_0_LLC_total_miss 1193029
Core_0_LLC_loads 115393
Core_0_LLC_load_hit 53252
Core_0_LLC_load_miss 62141
Core_0_LLC_RFOs 79059
Core_0_LLC_RFO_hit 38270
Core_0_LLC_RFO_miss 40789
Core_0_LLC_prefetches 1780558
Core_0_LLC_prefetch_hit 713855
Core_0_LLC_prefetch_miss 1066703
Core_0_LLC_writebacks 105391
Core_0_LLC_writeback_hit 81995
Core_0_LLC_writeback_miss 23396
Core_0_LLC_prefetch_requested 2442108
Core_0_LLC_prefetch_issued 2403783
Core_0_LLC_prefetch_useful 40929
Core_0_LLC_prefetch_useless 2308656
Core_0_LLC_prefetch_late 102
Core_0_LLC_average_miss_latency 157.46481

Core_0_major_page_fault 0
Core_0_minor_page_fault 3151


CPU 0 L2C PC-based stride prefetcher final stats
LLC Next Line Prefetcher Final Stats: none
Channel_0_RQ_row_buffer_hit 700537
Channel_0_RQ_row_buffer_miss 468917
Channel_0_WQ_row_buffer_hit 24085
Channel_0_WQ_row_buffer_miss 44857
Channel_0_WQ_full 0
Channel_0_dbus_congested 532616

avg_congested_cycle 10
