*************************************************
   ChampSim Multicore Out-of-Order Simulator
   Last compiled: Dec 24 2023 16:00:34
*************************************************

trace_0 ./test_trace/450.soplex-247B.champsimtrace.xz
CPU 0 L1D next line prefetcher
CPU 0 L2C next line prefetcher
Initialize DRRIP state
Assign rand_sets[0]: 454  LLC: 2048
rand_sets[0]: 454
Assign rand_sets[1]: 1662  LLC: 2048
rand_sets[1]: 1662
Assign rand_sets[2]: 1921  LLC: 2048
rand_sets[2]: 1921
Assign rand_sets[3]: 1131  LLC: 2048
rand_sets[3]: 1131
Assign rand_sets[4]: 331  LLC: 2048
rand_sets[4]: 331
Assign rand_sets[5]: 1531  LLC: 2048
rand_sets[5]: 1531
Assign rand_sets[6]: 482  LLC: 2048
rand_sets[6]: 482
Assign rand_sets[7]: 1275  LLC: 2048
rand_sets[7]: 1275
Assign rand_sets[8]: 1876  LLC: 2048
rand_sets[8]: 1876
Assign rand_sets[9]: 2038  LLC: 2048
rand_sets[9]: 2038
Assign rand_sets[10]: 701  LLC: 2048
rand_sets[10]: 701
Assign rand_sets[11]: 479  LLC: 2048
rand_sets[11]: 479
Assign rand_sets[12]: 892  LLC: 2048
rand_sets[12]: 892
Assign rand_sets[13]: 1820  LLC: 2048
rand_sets[13]: 1820
Assign rand_sets[14]: 1505  LLC: 2048
rand_sets[14]: 1505
Assign rand_sets[15]: 1159  LLC: 2048
rand_sets[15]: 1159
Assign rand_sets[16]: 513  LLC: 2048
rand_sets[16]: 513
Assign rand_sets[17]: 703  LLC: 2048
rand_sets[17]: 703
Assign rand_sets[18]: 561  LLC: 2048
rand_sets[18]: 561
Assign rand_sets[19]: 990  LLC: 2048
rand_sets[19]: 990
Assign rand_sets[20]: 342  LLC: 2048
rand_sets[20]: 342
Assign rand_sets[21]: 882  LLC: 2048
rand_sets[21]: 882
Assign rand_sets[22]: 15  LLC: 2048
rand_sets[22]: 15
Assign rand_sets[23]: 71  LLC: 2048
rand_sets[23]: 71
Assign rand_sets[24]: 1127  LLC: 2048
rand_sets[24]: 1127
Assign rand_sets[25]: 1382  LLC: 2048
rand_sets[25]: 1382
Assign rand_sets[26]: 647  LLC: 2048
rand_sets[26]: 647
Assign rand_sets[27]: 857  LLC: 2048
rand_sets[27]: 857
Assign rand_sets[28]: 1450  LLC: 2048
rand_sets[28]: 1450
Assign rand_sets[29]: 1160  LLC: 2048
rand_sets[29]: 1160
Assign rand_sets[30]: 1852  LLC: 2048
rand_sets[30]: 1852
Assign rand_sets[31]: 1881  LLC: 2048
rand_sets[31]: 1881
Assign rand_sets[32]: 1770  LLC: 2048
rand_sets[32]: 1770
Assign rand_sets[33]: 1622  LLC: 2048
rand_sets[33]: 1622
Assign rand_sets[34]: 275  LLC: 2048
rand_sets[34]: 275
Assign rand_sets[35]: 635  LLC: 2048
rand_sets[35]: 635
Assign rand_sets[36]: 466  LLC: 2048
rand_sets[36]: 466
Assign rand_sets[37]: 1413  LLC: 2048
rand_sets[37]: 1413
Assign rand_sets[38]: 417  LLC: 2048
rand_sets[38]: 417
Assign rand_sets[39]: 472  LLC: 2048
rand_sets[39]: 472
Assign rand_sets[40]: 1340  LLC: 2048
rand_sets[40]: 1340
Assign rand_sets[41]: 852  LLC: 2048
rand_sets[41]: 852
Assign rand_sets[42]: 1365  LLC: 2048
rand_sets[42]: 1365
Assign rand_sets[43]: 47  LLC: 2048
rand_sets[43]: 47
Assign rand_sets[44]: 823  LLC: 2048
rand_sets[44]: 823
Assign rand_sets[45]: 686  LLC: 2048
rand_sets[45]: 686
Assign rand_sets[46]: 1637  LLC: 2048
rand_sets[46]: 1637
Assign rand_sets[47]: 1115  LLC: 2048
rand_sets[47]: 1115
Assign rand_sets[48]: 986  LLC: 2048
rand_sets[48]: 986
Assign rand_sets[49]: 258  LLC: 2048
rand_sets[49]: 258
Assign rand_sets[50]: 633  LLC: 2048
rand_sets[50]: 633
Assign rand_sets[51]: 920  LLC: 2048
rand_sets[51]: 920
Assign rand_sets[52]: 204  LLC: 2048
rand_sets[52]: 204
Assign rand_sets[53]: 227  LLC: 2048
rand_sets[53]: 227
Assign rand_sets[54]: 1818  LLC: 2048
rand_sets[54]: 1818
Assign rand_sets[55]: 886  LLC: 2048
rand_sets[55]: 886
Assign rand_sets[56]: 1422  LLC: 2048
rand_sets[56]: 1422
Assign rand_sets[57]: 607  LLC: 2048
rand_sets[57]: 607
Assign rand_sets[58]: 217  LLC: 2048
rand_sets[58]: 217
Assign rand_sets[59]: 1945  LLC: 2048
rand_sets[59]: 1945
Assign rand_sets[60]: 143  LLC: 2048
rand_sets[60]: 143
Assign rand_sets[61]: 1311  LLC: 2048
rand_sets[61]: 1311
Assign rand_sets[62]: 319  LLC: 2048
rand_sets[62]: 319
Assign rand_sets[63]: 1846  LLC: 2048
rand_sets[63]: 1846
LLC Next Line Prefetcher
warmup_instructions 100000000
simulation_instructions 100000000
champsim_seed 223

num_cpus 1
cpu_freq 4000
dram_io_freq 2400
page_size 4096
block_size 64
max_read_per_cycle 8
max_fill_per_cycle 1
dram_channels 1
dram_ranks 1
dram_banks 8
dram_rows 65536
dram_columns 128
dram_row_size 8
dram_size 4096
dram_pages 1048576

fetch_width 6
decode_width 6
exec_width 4
lq_width 2
sq_width 2
retire_width 4
scheduler_size 128
branch_mispredict_penalty 20
rob_size 256
lq_size 72
sq_size 56
num_instr_destinations_sparc 4
num_instr_destinations 2
num_instr_sources 4

itlb_set 16
itlb_way 8
itlb_rq_size 16
itlb_wq_size 16
itlb_pq_size 0
itlb_mshr_size 8
itlb_latency 1

dtlb_set 16
dtlb_way 4
dtlb_rq_size 16
dtlb_wq_size 16
dtlb_pq_size 0
dtlb_mshr_size 8
dtlb_latency 1

stlb_set 128
stlb_way 12
stlb_rq_size 32
stlb_wq_size 32
stlb_pq_size 0
stlb_mshr_size 16
stlb_latency 8

l1i_size 32
l1i_set 64
l1i_way 8
l1i_rq_size 64
l1i_wq_size 64
l1i_pq_size 8
l1i_mshr_size 8
l1i_latency 1

l1d_size 32
l1d_set 64
l1d_way 8
l1d_rq_size 64
l1d_wq_size 64
l1d_pq_size 8
l1d_mshr_size 16
l1d_latency 4

l2c_size 512
l2c_set 1024
l2c_way 8
l2c_rq_size 32
l2c_wq_size 32
l2c_pq_size 16
l2c_mshr_size 32
l2c_latency 10

llc_size 2048
llc_set 2048
llc_way 16
llc_rq_size 32
llc_wq_size 32
llc_pq_size 32
llc_mshr_size 64
llc_latency 20

dram_channel_width 8
dram_wq_size 64
dram_rq_size 64
tRP 15
tRCD 15
tCAS 12.5
dram_dbus_turn_around_time 30
dram_write_high_wm 56
dram_write_low_wm 48
min_dram_writes_per_switch 16
dram_mtps 2400
dram_dbus_return_time 13


Heartbeat CPU  0 instructions:    1000002 cycles:     751948 heartbeat IPC: 1.32988 cumulative IPC: 1.32988 (Simulation time: 0 hr 0 min 1 sec) 
Heartbeat CPU  0 instructions:    2000001 cycles:    1390413 heartbeat IPC: 1.56625 cumulative IPC: 1.43842 (Simulation time: 0 hr 0 min 2 sec) 
Heartbeat CPU  0 instructions:    3000001 cycles:    2114896 heartbeat IPC: 1.38029 cumulative IPC: 1.41851 (Simulation time: 0 hr 0 min 3 sec) 
Heartbeat CPU  0 instructions:    4000000 cycles:    2655805 heartbeat IPC: 1.84874 cumulative IPC: 1.50613 (Simulation time: 0 hr 0 min 5 sec) 
Heartbeat CPU  0 instructions:    5000000 cycles:    3561050 heartbeat IPC: 1.10467 cumulative IPC: 1.40408 (Simulation time: 0 hr 0 min 6 sec) 
Heartbeat CPU  0 instructions:    6000001 cycles:    4449065 heartbeat IPC: 1.12611 cumulative IPC: 1.34860 (Simulation time: 0 hr 0 min 7 sec) 
Heartbeat CPU  0 instructions:    7000000 cycles:    5246567 heartbeat IPC: 1.25391 cumulative IPC: 1.33421 (Simulation time: 0 hr 0 min 8 sec) 
Heartbeat CPU  0 instructions:    8000000 cycles:    5936512 heartbeat IPC: 1.44939 cumulative IPC: 1.34759 (Simulation time: 0 hr 0 min 10 sec) 
Heartbeat CPU  0 instructions:    9000001 cycles:    6553832 heartbeat IPC: 1.61991 cumulative IPC: 1.37324 (Simulation time: 0 hr 0 min 11 sec) 
Heartbeat CPU  0 instructions:   10000000 cycles:    7100191 heartbeat IPC: 1.83030 cumulative IPC: 1.40841 (Simulation time: 0 hr 0 min 12 sec) 
Heartbeat CPU  0 instructions:   11000003 cycles:    7687011 heartbeat IPC: 1.70411 cumulative IPC: 1.43099 (Simulation time: 0 hr 0 min 13 sec) 
Heartbeat CPU  0 instructions:   12000000 cycles:    8355918 heartbeat IPC: 1.49497 cumulative IPC: 1.43611 (Simulation time: 0 hr 0 min 14 sec) 
Heartbeat CPU  0 instructions:   13000000 cycles:    9233637 heartbeat IPC: 1.13932 cumulative IPC: 1.40790 (Simulation time: 0 hr 0 min 15 sec) 
Heartbeat CPU  0 instructions:   14000002 cycles:    9979484 heartbeat IPC: 1.34076 cumulative IPC: 1.40288 (Simulation time: 0 hr 0 min 16 sec) 
Heartbeat CPU  0 instructions:   15000002 cycles:   10565064 heartbeat IPC: 1.70771 cumulative IPC: 1.41977 (Simulation time: 0 hr 0 min 17 sec) 
Heartbeat CPU  0 instructions:   16000000 cycles:   11084919 heartbeat IPC: 1.92361 cumulative IPC: 1.44340 (Simulation time: 0 hr 0 min 18 sec) 
Heartbeat CPU  0 instructions:   17000000 cycles:   11892262 heartbeat IPC: 1.23863 cumulative IPC: 1.42950 (Simulation time: 0 hr 0 min 19 sec) 
Heartbeat CPU  0 instructions:   18000001 cycles:   12480274 heartbeat IPC: 1.70065 cumulative IPC: 1.44228 (Simulation time: 0 hr 0 min 20 sec) 
Heartbeat CPU  0 instructions:   19000001 cycles:   13020450 heartbeat IPC: 1.85125 cumulative IPC: 1.45924 (Simulation time: 0 hr 0 min 21 sec) 
Heartbeat CPU  0 instructions:   20000000 cycles:   13611931 heartbeat IPC: 1.69067 cumulative IPC: 1.46930 (Simulation time: 0 hr 0 min 23 sec) 
Heartbeat CPU  0 instructions:   21000001 cycles:   14261902 heartbeat IPC: 1.53853 cumulative IPC: 1.47245 (Simulation time: 0 hr 0 min 24 sec) 
Heartbeat CPU  0 instructions:   22000003 cycles:   15137648 heartbeat IPC: 1.14189 cumulative IPC: 1.45333 (Simulation time: 0 hr 0 min 24 sec) 
Heartbeat CPU  0 instructions:   23000001 cycles:   15901987 heartbeat IPC: 1.30832 cumulative IPC: 1.44636 (Simulation time: 0 hr 0 min 25 sec) 
Heartbeat CPU  0 instructions:   24000000 cycles:   16485999 heartbeat IPC: 1.71229 cumulative IPC: 1.45578 (Simulation time: 0 hr 0 min 26 sec) 
Heartbeat CPU  0 instructions:   25000000 cycles:   17018963 heartbeat IPC: 1.87630 cumulative IPC: 1.46895 (Simulation time: 0 hr 0 min 27 sec) 
Heartbeat CPU  0 instructions:   26000001 cycles:   17816282 heartbeat IPC: 1.25420 cumulative IPC: 1.45934 (Simulation time: 0 hr 0 min 28 sec) 
Heartbeat CPU  0 instructions:   27000003 cycles:   18369955 heartbeat IPC: 1.80612 cumulative IPC: 1.46979 (Simulation time: 0 hr 0 min 30 sec) 
Heartbeat CPU  0 instructions:   28000000 cycles:   18928037 heartbeat IPC: 1.79185 cumulative IPC: 1.47929 (Simulation time: 0 hr 0 min 31 sec) 
Heartbeat CPU  0 instructions:   29000002 cycles:   19481713 heartbeat IPC: 1.80611 cumulative IPC: 1.48858 (Simulation time: 0 hr 0 min 32 sec) 
Heartbeat CPU  0 instructions:   30000001 cycles:   20059499 heartbeat IPC: 1.73074 cumulative IPC: 1.49555 (Simulation time: 0 hr 0 min 33 sec) 
Heartbeat CPU  0 instructions:   31000002 cycles:   20924490 heartbeat IPC: 1.15608 cumulative IPC: 1.48152 (Simulation time: 0 hr 0 min 34 sec) 
Heartbeat CPU  0 instructions:   32000000 cycles:   21742537 heartbeat IPC: 1.22242 cumulative IPC: 1.47177 (Simulation time: 0 hr 0 min 35 sec) 
Heartbeat CPU  0 instructions:   33000000 cycles:   22333564 heartbeat IPC: 1.69197 cumulative IPC: 1.47760 (Simulation time: 0 hr 0 min 35 sec) 
Heartbeat CPU  0 instructions:   34000000 cycles:   22933959 heartbeat IPC: 1.66557 cumulative IPC: 1.48252 (Simulation time: 0 hr 0 min 36 sec) 
Heartbeat CPU  0 instructions:   35000000 cycles:   23657902 heartbeat IPC: 1.38132 cumulative IPC: 1.47942 (Simulation time: 0 hr 0 min 38 sec) 
Heartbeat CPU  0 instructions:   36000000 cycles:   24240615 heartbeat IPC: 1.71611 cumulative IPC: 1.48511 (Simulation time: 0 hr 0 min 39 sec) 
Heartbeat CPU  0 instructions:   37000002 cycles:   24782285 heartbeat IPC: 1.84615 cumulative IPC: 1.49300 (Simulation time: 0 hr 0 min 40 sec) 
Heartbeat CPU  0 instructions:   38000002 cycles:   25348031 heartbeat IPC: 1.76758 cumulative IPC: 1.49913 (Simulation time: 0 hr 0 min 41 sec) 
Heartbeat CPU  0 instructions:   39000000 cycles:   25920459 heartbeat IPC: 1.74694 cumulative IPC: 1.50460 (Simulation time: 0 hr 0 min 42 sec) 
Heartbeat CPU  0 instructions:   40000000 cycles:   26689713 heartbeat IPC: 1.29996 cumulative IPC: 1.49870 (Simulation time: 0 hr 0 min 43 sec) 
Heartbeat CPU  0 instructions:   41000001 cycles:   27552495 heartbeat IPC: 1.15904 cumulative IPC: 1.48807 (Simulation time: 0 hr 0 min 44 sec) 
Heartbeat CPU  0 instructions:   42000001 cycles:   28201484 heartbeat IPC: 1.54086 cumulative IPC: 1.48928 (Simulation time: 0 hr 0 min 45 sec) 
Heartbeat CPU  0 instructions:   43000000 cycles:   28817941 heartbeat IPC: 1.62217 cumulative IPC: 1.49213 (Simulation time: 0 hr 0 min 46 sec) 
Heartbeat CPU  0 instructions:   44000000 cycles:   29442408 heartbeat IPC: 1.60137 cumulative IPC: 1.49444 (Simulation time: 0 hr 0 min 47 sec) 
Heartbeat CPU  0 instructions:   45000000 cycles:   30155517 heartbeat IPC: 1.40231 cumulative IPC: 1.49226 (Simulation time: 0 hr 0 min 48 sec) 
Heartbeat CPU  0 instructions:   46000001 cycles:   30691495 heartbeat IPC: 1.86575 cumulative IPC: 1.49879 (Simulation time: 0 hr 0 min 50 sec) 
Heartbeat CPU  0 instructions:   47000000 cycles:   31250890 heartbeat IPC: 1.78764 cumulative IPC: 1.50396 (Simulation time: 0 hr 0 min 51 sec) 
Heartbeat CPU  0 instructions:   48000000 cycles:   31829692 heartbeat IPC: 1.72771 cumulative IPC: 1.50803 (Simulation time: 0 hr 0 min 52 sec) 
Heartbeat CPU  0 instructions:   49000001 cycles:   32562998 heartbeat IPC: 1.36369 cumulative IPC: 1.50478 (Simulation time: 0 hr 0 min 53 sec) 
Heartbeat CPU  0 instructions:   50000001 cycles:   33428186 heartbeat IPC: 1.15582 cumulative IPC: 1.49574 (Simulation time: 0 hr 0 min 54 sec) 
Heartbeat CPU  0 instructions:   51000003 cycles:   34120190 heartbeat IPC: 1.44508 cumulative IPC: 1.49472 (Simulation time: 0 hr 0 min 54 sec) 
Heartbeat CPU  0 instructions:   52000000 cycles:   34705638 heartbeat IPC: 1.70809 cumulative IPC: 1.49832 (Simulation time: 0 hr 0 min 55 sec) 
Heartbeat CPU  0 instructions:   53000000 cycles:   35280940 heartbeat IPC: 1.73822 cumulative IPC: 1.50223 (Simulation time: 0 hr 0 min 56 sec) 
Heartbeat CPU  0 instructions:   54000002 cycles:   36034997 heartbeat IPC: 1.32616 cumulative IPC: 1.49854 (Simulation time: 0 hr 0 min 58 sec) 
Heartbeat CPU  0 instructions:   55000001 cycles:   36600090 heartbeat IPC: 1.76962 cumulative IPC: 1.50273 (Simulation time: 0 hr 0 min 59 sec) 
Heartbeat CPU  0 instructions:   56000000 cycles:   37153007 heartbeat IPC: 1.80859 cumulative IPC: 1.50728 (Simulation time: 0 hr 1 min 0 sec) 
Heartbeat CPU  0 instructions:   57000002 cycles:   37733898 heartbeat IPC: 1.72150 cumulative IPC: 1.51058 (Simulation time: 0 hr 1 min 1 sec) 
Heartbeat CPU  0 instructions:   58000001 cycles:   38460166 heartbeat IPC: 1.37690 cumulative IPC: 1.50805 (Simulation time: 0 hr 1 min 2 sec) 
Heartbeat CPU  0 instructions:   59000001 cycles:   39327496 heartbeat IPC: 1.15296 cumulative IPC: 1.50022 (Simulation time: 0 hr 1 min 3 sec) 
Heartbeat CPU  0 instructions:   60000000 cycles:   40044662 heartbeat IPC: 1.39438 cumulative IPC: 1.49833 (Simulation time: 0 hr 1 min 4 sec) 
Heartbeat CPU  0 instructions:   61000003 cycles:   40638934 heartbeat IPC: 1.68274 cumulative IPC: 1.50102 (Simulation time: 0 hr 1 min 5 sec) 
Heartbeat CPU  0 instructions:   62000001 cycles:   41201592 heartbeat IPC: 1.77727 cumulative IPC: 1.50480 (Simulation time: 0 hr 1 min 6 sec) 
Heartbeat CPU  0 instructions:   63000000 cycles:   41986085 heartbeat IPC: 1.27471 cumulative IPC: 1.50050 (Simulation time: 0 hr 1 min 7 sec) 
Heartbeat CPU  0 instructions:   64000000 cycles:   42561964 heartbeat IPC: 1.73648 cumulative IPC: 1.50369 (Simulation time: 0 hr 1 min 8 sec) 
Heartbeat CPU  0 instructions:   65000003 cycles:   43113112 heartbeat IPC: 1.81440 cumulative IPC: 1.50766 (Simulation time: 0 hr 1 min 9 sec) 
Heartbeat CPU  0 instructions:   66000003 cycles:   43695659 heartbeat IPC: 1.71660 cumulative IPC: 1.51045 (Simulation time: 0 hr 1 min 11 sec) 
Heartbeat CPU  0 instructions:   67000000 cycles:   44375942 heartbeat IPC: 1.46997 cumulative IPC: 1.50983 (Simulation time: 0 hr 1 min 12 sec) 
Heartbeat CPU  0 instructions:   68000000 cycles:   45248744 heartbeat IPC: 1.14574 cumulative IPC: 1.50280 (Simulation time: 0 hr 1 min 12 sec) 
Heartbeat CPU  0 instructions:   69000001 cycles:   45997990 heartbeat IPC: 1.33468 cumulative IPC: 1.50007 (Simulation time: 0 hr 1 min 13 sec) 
Heartbeat CPU  0 instructions:   70000000 cycles:   46595491 heartbeat IPC: 1.67364 cumulative IPC: 1.50229 (Simulation time: 0 hr 1 min 14 sec) 
Heartbeat CPU  0 instructions:   71000002 cycles:   47118806 heartbeat IPC: 1.91090 cumulative IPC: 1.50683 (Simulation time: 0 hr 1 min 15 sec) 
Heartbeat CPU  0 instructions:   72000000 cycles:   47921536 heartbeat IPC: 1.24575 cumulative IPC: 1.50246 (Simulation time: 0 hr 1 min 17 sec) 
Heartbeat CPU  0 instructions:   73000001 cycles:   48498482 heartbeat IPC: 1.73327 cumulative IPC: 1.50520 (Simulation time: 0 hr 1 min 18 sec) 
Heartbeat CPU  0 instructions:   74000002 cycles:   49043958 heartbeat IPC: 1.83326 cumulative IPC: 1.50885 (Simulation time: 0 hr 1 min 19 sec) 
Heartbeat CPU  0 instructions:   75000003 cycles:   49636152 heartbeat IPC: 1.68864 cumulative IPC: 1.51100 (Simulation time: 0 hr 1 min 20 sec) 
Heartbeat CPU  0 instructions:   76000000 cycles:   50281084 heartbeat IPC: 1.55055 cumulative IPC: 1.51150 (Simulation time: 0 hr 1 min 21 sec) 
Heartbeat CPU  0 instructions:   77000001 cycles:   51151141 heartbeat IPC: 1.14935 cumulative IPC: 1.50534 (Simulation time: 0 hr 1 min 22 sec) 
Heartbeat CPU  0 instructions:   78000001 cycles:   51922317 heartbeat IPC: 1.29672 cumulative IPC: 1.50224 (Simulation time: 0 hr 1 min 23 sec) 
Heartbeat CPU  0 instructions:   79000003 cycles:   52521908 heartbeat IPC: 1.66781 cumulative IPC: 1.50413 (Simulation time: 0 hr 1 min 24 sec) 
Heartbeat CPU  0 instructions:   80000000 cycles:   53074910 heartbeat IPC: 1.80831 cumulative IPC: 1.50730 (Simulation time: 0 hr 1 min 25 sec) 
Heartbeat CPU  0 instructions:   81000001 cycles:   53861972 heartbeat IPC: 1.27055 cumulative IPC: 1.50384 (Simulation time: 0 hr 1 min 26 sec) 
Heartbeat CPU  0 instructions:   82000002 cycles:   54451112 heartbeat IPC: 1.69739 cumulative IPC: 1.50594 (Simulation time: 0 hr 1 min 27 sec) 
Heartbeat CPU  0 instructions:   83000003 cycles:   55013329 heartbeat IPC: 1.77867 cumulative IPC: 1.50873 (Simulation time: 0 hr 1 min 28 sec) 
Heartbeat CPU  0 instructions:   84000000 cycles:   55565087 heartbeat IPC: 1.81238 cumulative IPC: 1.51174 (Simulation time: 0 hr 1 min 29 sec) 
Heartbeat CPU  0 instructions:   85000001 cycles:   56142327 heartbeat IPC: 1.73238 cumulative IPC: 1.51401 (Simulation time: 0 hr 1 min 31 sec) 
Heartbeat CPU  0 instructions:   86000000 cycles:   57010689 heartbeat IPC: 1.15159 cumulative IPC: 1.50849 (Simulation time: 0 hr 1 min 31 sec) 
Heartbeat CPU  0 instructions:   87000000 cycles:   57834781 heartbeat IPC: 1.21346 cumulative IPC: 1.50429 (Simulation time: 0 hr 1 min 32 sec) 
Heartbeat CPU  0 instructions:   88000000 cycles:   58445974 heartbeat IPC: 1.63614 cumulative IPC: 1.50566 (Simulation time: 0 hr 1 min 33 sec) 
Heartbeat CPU  0 instructions:   89000003 cycles:   59065332 heartbeat IPC: 1.61458 cumulative IPC: 1.50681 (Simulation time: 0 hr 1 min 34 sec) 
Heartbeat CPU  0 instructions:   90000003 cycles:   59758897 heartbeat IPC: 1.44183 cumulative IPC: 1.50605 (Simulation time: 0 hr 1 min 35 sec) 
Heartbeat CPU  0 instructions:   91000001 cycles:   60409666 heartbeat IPC: 1.53664 cumulative IPC: 1.50638 (Simulation time: 0 hr 1 min 37 sec) 
Heartbeat CPU  0 instructions:   92000000 cycles:   60983609 heartbeat IPC: 1.74233 cumulative IPC: 1.50860 (Simulation time: 0 hr 1 min 38 sec) 
Heartbeat CPU  0 instructions:   93000002 cycles:   61527812 heartbeat IPC: 1.83755 cumulative IPC: 1.51151 (Simulation time: 0 hr 1 min 39 sec) 
Heartbeat CPU  0 instructions:   94000002 cycles:   62106726 heartbeat IPC: 1.72737 cumulative IPC: 1.51352 (Simulation time: 0 hr 1 min 40 sec) 
Heartbeat CPU  0 instructions:   95000003 cycles:   62938372 heartbeat IPC: 1.20244 cumulative IPC: 1.50941 (Simulation time: 0 hr 1 min 41 sec) 
Heartbeat CPU  0 instructions:   96000000 cycles:   63783134 heartbeat IPC: 1.18376 cumulative IPC: 1.50510 (Simulation time: 0 hr 1 min 42 sec) 
Heartbeat CPU  0 instructions:   97000002 cycles:   64413487 heartbeat IPC: 1.58642 cumulative IPC: 1.50590 (Simulation time: 0 hr 1 min 43 sec) 
Heartbeat CPU  0 instructions:   98000003 cycles:   65037206 heartbeat IPC: 1.60329 cumulative IPC: 1.50683 (Simulation time: 0 hr 1 min 43 sec) 
Heartbeat CPU  0 instructions:   99000002 cycles:   65688779 heartbeat IPC: 1.53475 cumulative IPC: 1.50711 (Simulation time: 0 hr 1 min 45 sec) 
Heartbeat CPU  0 instructions:  100000000 cycles:   66273209 heartbeat IPC: 1.71107 cumulative IPC: 1.50891 (Simulation time: 0 hr 1 min 46 sec) 

Warmup complete CPU  0 instructions:  100000002 cycles:   66273211 (Simulation time: 0 hr 1 min 46 sec) 

Heartbeat CPU  0 instructions:  101000000 cycles:   72834827 heartbeat IPC: 0.15240 cumulative IPC: 0.15240 (Simulation time: 0 hr 1 min 49 sec) 
Heartbeat CPU  0 instructions:  102000001 cycles:   76210718 heartbeat IPC: 0.29622 cumulative IPC: 0.20126 (Simulation time: 0 hr 1 min 51 sec) 
Heartbeat CPU  0 instructions:  103000001 cycles:   80779147 heartbeat IPC: 0.21889 cumulative IPC: 0.20681 (Simulation time: 0 hr 1 min 54 sec) 
Heartbeat CPU  0 instructions:  104000000 cycles:   85381593 heartbeat IPC: 0.21728 cumulative IPC: 0.20933 (Simulation time: 0 hr 1 min 57 sec) 
Heartbeat CPU  0 instructions:  105000003 cycles:   88608173 heartbeat IPC: 0.30993 cumulative IPC: 0.22386 (Simulation time: 0 hr 1 min 59 sec) 
Heartbeat CPU  0 instructions:  106000001 cycles:   91483724 heartbeat IPC: 0.34776 cumulative IPC: 0.23800 (Simulation time: 0 hr 2 min 1 sec) 
Heartbeat CPU  0 instructions:  107000003 cycles:   95288112 heartbeat IPC: 0.26285 cumulative IPC: 0.24126 (Simulation time: 0 hr 2 min 4 sec) 
Heartbeat CPU  0 instructions:  108000000 cycles:   98660897 heartbeat IPC: 0.29649 cumulative IPC: 0.24701 (Simulation time: 0 hr 2 min 5 sec) 
Heartbeat CPU  0 instructions:  109000000 cycles:  102025416 heartbeat IPC: 0.29722 cumulative IPC: 0.25173 (Simulation time: 0 hr 2 min 7 sec) 
Heartbeat CPU  0 instructions:  110000001 cycles:  104118924 heartbeat IPC: 0.47767 cumulative IPC: 0.26423 (Simulation time: 0 hr 2 min 9 sec) 
Heartbeat CPU  0 instructions:  111000003 cycles:  106544906 heartbeat IPC: 0.41221 cumulative IPC: 0.27314 (Simulation time: 0 hr 2 min 11 sec) 
Heartbeat CPU  0 instructions:  112000000 cycles:  108418419 heartbeat IPC: 0.53376 cumulative IPC: 0.28473 (Simulation time: 0 hr 2 min 13 sec) 
Heartbeat CPU  0 instructions:  113000000 cycles:  110183748 heartbeat IPC: 0.56647 cumulative IPC: 0.29606 (Simulation time: 0 hr 2 min 15 sec) 
Heartbeat CPU  0 instructions:  114000001 cycles:  111514388 heartbeat IPC: 0.75152 cumulative IPC: 0.30945 (Simulation time: 0 hr 2 min 16 sec) 
Heartbeat CPU  0 instructions:  115000000 cycles:  113401911 heartbeat IPC: 0.52979 cumulative IPC: 0.31828 (Simulation time: 0 hr 2 min 18 sec) 
Heartbeat CPU  0 instructions:  116000000 cycles:  117218201 heartbeat IPC: 0.26203 cumulative IPC: 0.31406 (Simulation time: 0 hr 2 min 20 sec) 
Heartbeat CPU  0 instructions:  117000000 cycles:  119975264 heartbeat IPC: 0.36270 cumulative IPC: 0.31656 (Simulation time: 0 hr 2 min 22 sec) 
Heartbeat CPU  0 instructions:  118000002 cycles:  122660005 heartbeat IPC: 0.37248 cumulative IPC: 0.31922 (Simulation time: 0 hr 2 min 24 sec) 
Heartbeat CPU  0 instructions:  119000000 cycles:  125811023 heartbeat IPC: 0.31736 cumulative IPC: 0.31912 (Simulation time: 0 hr 2 min 27 sec) 
Heartbeat CPU  0 instructions:  120000000 cycles:  128047937 heartbeat IPC: 0.44704 cumulative IPC: 0.32376 (Simulation time: 0 hr 2 min 28 sec) 
Heartbeat CPU  0 instructions:  121000001 cycles:  132408474 heartbeat IPC: 0.22933 cumulative IPC: 0.31753 (Simulation time: 0 hr 2 min 31 sec) 
Heartbeat CPU  0 instructions:  122000001 cycles:  136247431 heartbeat IPC: 0.26049 cumulative IPC: 0.31440 (Simulation time: 0 hr 2 min 33 sec) 
Heartbeat CPU  0 instructions:  123000000 cycles:  137947842 heartbeat IPC: 0.58809 cumulative IPC: 0.32089 (Simulation time: 0 hr 2 min 35 sec) 
Heartbeat CPU  0 instructions:  124000000 cycles:  139360721 heartbeat IPC: 0.70777 cumulative IPC: 0.32837 (Simulation time: 0 hr 2 min 36 sec) 
Heartbeat CPU  0 instructions:  125000000 cycles:  142614889 heartbeat IPC: 0.30730 cumulative IPC: 0.32748 (Simulation time: 0 hr 2 min 37 sec) 
Heartbeat CPU  0 instructions:  126000002 cycles:  145021173 heartbeat IPC: 0.41558 cumulative IPC: 0.33017 (Simulation time: 0 hr 2 min 39 sec) 
Heartbeat CPU  0 instructions:  127000002 cycles:  148351080 heartbeat IPC: 0.30031 cumulative IPC: 0.32896 (Simulation time: 0 hr 2 min 42 sec) 
Heartbeat CPU  0 instructions:  128000000 cycles:  151665244 heartbeat IPC: 0.30173 cumulative IPC: 0.32790 (Simulation time: 0 hr 2 min 44 sec) 
Heartbeat CPU  0 instructions:  129000001 cycles:  154065304 heartbeat IPC: 0.41666 cumulative IPC: 0.33033 (Simulation time: 0 hr 2 min 46 sec) 
Heartbeat CPU  0 instructions:  130000000 cycles:  159582142 heartbeat IPC: 0.18126 cumulative IPC: 0.32151 (Simulation time: 0 hr 2 min 49 sec) 
Heartbeat CPU  0 instructions:  131000000 cycles:  161482405 heartbeat IPC: 0.52624 cumulative IPC: 0.32560 (Simulation time: 0 hr 2 min 50 sec) 
Heartbeat CPU  0 instructions:  132000000 cycles:  163086643 heartbeat IPC: 0.62335 cumulative IPC: 0.33053 (Simulation time: 0 hr 2 min 51 sec) 
Heartbeat CPU  0 instructions:  133000000 cycles:  164986715 heartbeat IPC: 0.52630 cumulative IPC: 0.33430 (Simulation time: 0 hr 2 min 53 sec) 
Heartbeat CPU  0 instructions:  134000000 cycles:  168183715 heartbeat IPC: 0.31279 cumulative IPC: 0.33363 (Simulation time: 0 hr 2 min 55 sec) 
Heartbeat CPU  0 instructions:  135000002 cycles:  171332925 heartbeat IPC: 0.31754 cumulative IPC: 0.33314 (Simulation time: 0 hr 2 min 57 sec) 
Heartbeat CPU  0 instructions:  136000000 cycles:  173505423 heartbeat IPC: 0.46030 cumulative IPC: 0.33572 (Simulation time: 0 hr 2 min 59 sec) 
Heartbeat CPU  0 instructions:  137000000 cycles:  176855752 heartbeat IPC: 0.29848 cumulative IPC: 0.33459 (Simulation time: 0 hr 3 min 1 sec) 
Heartbeat CPU  0 instructions:  138000003 cycles:  179850992 heartbeat IPC: 0.33386 cumulative IPC: 0.33457 (Simulation time: 0 hr 3 min 3 sec) 
Heartbeat CPU  0 instructions:  139000000 cycles:  184830613 heartbeat IPC: 0.20082 cumulative IPC: 0.32895 (Simulation time: 0 hr 3 min 6 sec) 
Heartbeat CPU  0 instructions:  140000000 cycles:  186549276 heartbeat IPC: 0.58185 cumulative IPC: 0.33257 (Simulation time: 0 hr 3 min 7 sec) 
Heartbeat CPU  0 instructions:  141000000 cycles:  188073732 heartbeat IPC: 0.65597 cumulative IPC: 0.33662 (Simulation time: 0 hr 3 min 8 sec) 
Heartbeat CPU  0 instructions:  142000000 cycles:  190514282 heartbeat IPC: 0.40974 cumulative IPC: 0.33805 (Simulation time: 0 hr 3 min 10 sec) 
Heartbeat CPU  0 instructions:  143000000 cycles:  193107442 heartbeat IPC: 0.38563 cumulative IPC: 0.33903 (Simulation time: 0 hr 3 min 11 sec) 
Heartbeat CPU  0 instructions:  144000000 cycles:  196655633 heartbeat IPC: 0.28183 cumulative IPC: 0.33747 (Simulation time: 0 hr 3 min 14 sec) 
Heartbeat CPU  0 instructions:  145000002 cycles:  199190390 heartbeat IPC: 0.39452 cumulative IPC: 0.33856 (Simulation time: 0 hr 3 min 16 sec) 
Heartbeat CPU  0 instructions:  146000003 cycles:  201794843 heartbeat IPC: 0.38396 cumulative IPC: 0.33943 (Simulation time: 0 hr 3 min 17 sec) 
Heartbeat CPU  0 instructions:  147000002 cycles:  205836237 heartbeat IPC: 0.24744 cumulative IPC: 0.33677 (Simulation time: 0 hr 3 min 20 sec) 
Heartbeat CPU  0 instructions:  148000000 cycles:  209919250 heartbeat IPC: 0.24492 cumulative IPC: 0.33415 (Simulation time: 0 hr 3 min 23 sec) 
Heartbeat CPU  0 instructions:  149000000 cycles:  211636498 heartbeat IPC: 0.58233 cumulative IPC: 0.33709 (Simulation time: 0 hr 3 min 24 sec) 
Heartbeat CPU  0 instructions:  150000002 cycles:  213085077 heartbeat IPC: 0.69033 cumulative IPC: 0.34057 (Simulation time: 0 hr 3 min 25 sec) 
Heartbeat CPU  0 instructions:  151000000 cycles:  216034003 heartbeat IPC: 0.33911 cumulative IPC: 0.34054 (Simulation time: 0 hr 3 min 26 sec) 
Heartbeat CPU  0 instructions:  152000000 cycles:  218387702 heartbeat IPC: 0.42486 cumulative IPC: 0.34185 (Simulation time: 0 hr 3 min 28 sec) 
Heartbeat CPU  0 instructions:  153000000 cycles:  221502034 heartbeat IPC: 0.32110 cumulative IPC: 0.34143 (Simulation time: 0 hr 3 min 30 sec) 
Heartbeat CPU  0 instructions:  154000002 cycles:  224925237 heartbeat IPC: 0.29212 cumulative IPC: 0.34037 (Simulation time: 0 hr 3 min 32 sec) 
Heartbeat CPU  0 instructions:  155000002 cycles:  226729868 heartbeat IPC: 0.55413 cumulative IPC: 0.34277 (Simulation time: 0 hr 3 min 34 sec) 
Heartbeat CPU  0 instructions:  156000000 cycles:  231566151 heartbeat IPC: 0.20677 cumulative IPC: 0.33879 (Simulation time: 0 hr 3 min 37 sec) 
Heartbeat CPU  0 instructions:  157000000 cycles:  234999765 heartbeat IPC: 0.29124 cumulative IPC: 0.33782 (Simulation time: 0 hr 3 min 39 sec) 
Heartbeat CPU  0 instructions:  158000003 cycles:  236692200 heartbeat IPC: 0.59087 cumulative IPC: 0.34034 (Simulation time: 0 hr 3 min 40 sec) 
Heartbeat CPU  0 instructions:  159000000 cycles:  238060769 heartbeat IPC: 0.73069 cumulative IPC: 0.34345 (Simulation time: 0 hr 3 min 41 sec) 
Heartbeat CPU  0 instructions:  160000000 cycles:  241807732 heartbeat IPC: 0.26688 cumulative IPC: 0.34181 (Simulation time: 0 hr 3 min 43 sec) 
Heartbeat CPU  0 instructions:  161000003 cycles:  244059537 heartbeat IPC: 0.44409 cumulative IPC: 0.34311 (Simulation time: 0 hr 3 min 45 sec) 
Heartbeat CPU  0 instructions:  162000001 cycles:  246970447 heartbeat IPC: 0.34353 cumulative IPC: 0.34312 (Simulation time: 0 hr 3 min 47 sec) 
Heartbeat CPU  0 instructions:  163000000 cycles:  250321618 heartbeat IPC: 0.29840 cumulative IPC: 0.34230 (Simulation time: 0 hr 3 min 49 sec) 
Heartbeat CPU  0 instructions:  164000000 cycles:  252709743 heartbeat IPC: 0.41874 cumulative IPC: 0.34328 (Simulation time: 0 hr 3 min 51 sec) 
Heartbeat CPU  0 instructions:  165000001 cycles:  258188249 heartbeat IPC: 0.18253 cumulative IPC: 0.33869 (Simulation time: 0 hr 3 min 55 sec) 
Heartbeat CPU  0 instructions:  166000000 cycles:  260165938 heartbeat IPC: 0.50564 cumulative IPC: 0.34039 (Simulation time: 0 hr 3 min 56 sec) 
Heartbeat CPU  0 instructions:  167000001 cycles:  261777495 heartbeat IPC: 0.62052 cumulative IPC: 0.34270 (Simulation time: 0 hr 3 min 57 sec) 
Heartbeat CPU  0 instructions:  168000000 cycles:  263664593 heartbeat IPC: 0.52991 cumulative IPC: 0.34449 (Simulation time: 0 hr 3 min 58 sec) 
Heartbeat CPU  0 instructions:  169000001 cycles:  266858276 heartbeat IPC: 0.31312 cumulative IPC: 0.34399 (Simulation time: 0 hr 4 min 0 sec) 
Heartbeat CPU  0 instructions:  170000002 cycles:  269988240 heartbeat IPC: 0.31949 cumulative IPC: 0.34362 (Simulation time: 0 hr 4 min 2 sec) 
Heartbeat CPU  0 instructions:  171000000 cycles:  272167552 heartbeat IPC: 0.45886 cumulative IPC: 0.34484 (Simulation time: 0 hr 4 min 4 sec) 
Heartbeat CPU  0 instructions:  172000000 cycles:  275533305 heartbeat IPC: 0.29711 cumulative IPC: 0.34407 (Simulation time: 0 hr 4 min 6 sec) 
Heartbeat CPU  0 instructions:  173000000 cycles:  278495125 heartbeat IPC: 0.33763 cumulative IPC: 0.34398 (Simulation time: 0 hr 4 min 8 sec) 
Heartbeat CPU  0 instructions:  174000000 cycles:  283514605 heartbeat IPC: 0.19922 cumulative IPC: 0.34063 (Simulation time: 0 hr 4 min 12 sec) 
Heartbeat CPU  0 instructions:  175000000 cycles:  285234945 heartbeat IPC: 0.58128 cumulative IPC: 0.34253 (Simulation time: 0 hr 4 min 13 sec) 
Heartbeat CPU  0 instructions:  176000000 cycles:  286764842 heartbeat IPC: 0.65364 cumulative IPC: 0.34468 (Simulation time: 0 hr 4 min 14 sec) 
Heartbeat CPU  0 instructions:  177000002 cycles:  289155654 heartbeat IPC: 0.41827 cumulative IPC: 0.34547 (Simulation time: 0 hr 4 min 15 sec) 
Heartbeat CPU  0 instructions:  178000001 cycles:  291799901 heartbeat IPC: 0.37818 cumulative IPC: 0.34586 (Simulation time: 0 hr 4 min 17 sec) 
Heartbeat CPU  0 instructions:  179000002 cycles:  295360376 heartbeat IPC: 0.28086 cumulative IPC: 0.34485 (Simulation time: 0 hr 4 min 19 sec) 
Heartbeat CPU  0 instructions:  180000000 cycles:  298546332 heartbeat IPC: 0.31388 cumulative IPC: 0.34442 (Simulation time: 0 hr 4 min 21 sec) 
Heartbeat CPU  0 instructions:  181000003 cycles:  300537074 heartbeat IPC: 0.50233 cumulative IPC: 0.34576 (Simulation time: 0 hr 4 min 23 sec) 
Heartbeat CPU  0 instructions:  182000000 cycles:  305191537 heartbeat IPC: 0.21485 cumulative IPC: 0.34321 (Simulation time: 0 hr 4 min 26 sec) 
Heartbeat CPU  0 instructions:  183000000 cycles:  308787021 heartbeat IPC: 0.27813 cumulative IPC: 0.34225 (Simulation time: 0 hr 4 min 28 sec) 
Heartbeat CPU  0 instructions:  184000000 cycles:  310479119 heartbeat IPC: 0.59098 cumulative IPC: 0.34397 (Simulation time: 0 hr 4 min 29 sec) 
Heartbeat CPU  0 instructions:  185000002 cycles:  311850639 heartbeat IPC: 0.72912 cumulative IPC: 0.34612 (Simulation time: 0 hr 4 min 30 sec) 
Heartbeat CPU  0 instructions:  186000001 cycles:  315434869 heartbeat IPC: 0.27900 cumulative IPC: 0.34516 (Simulation time: 0 hr 4 min 32 sec) 
Heartbeat CPU  0 instructions:  187000000 cycles:  317756361 heartbeat IPC: 0.43076 cumulative IPC: 0.34595 (Simulation time: 0 hr 4 min 34 sec) 
Heartbeat CPU  0 instructions:  188000000 cycles:  320467783 heartbeat IPC: 0.36881 cumulative IPC: 0.34619 (Simulation time: 0 hr 4 min 36 sec) 
Heartbeat CPU  0 instructions:  189000001 cycles:  323883578 heartbeat IPC: 0.29276 cumulative IPC: 0.34548 (Simulation time: 0 hr 4 min 38 sec) 
Heartbeat CPU  0 instructions:  190000001 cycles:  325908075 heartbeat IPC: 0.49395 cumulative IPC: 0.34664 (Simulation time: 0 hr 4 min 40 sec) 
Heartbeat CPU  0 instructions:  191000003 cycles:  331212050 heartbeat IPC: 0.18854 cumulative IPC: 0.34348 (Simulation time: 0 hr 4 min 43 sec) 
Heartbeat CPU  0 instructions:  192000000 cycles:  333852931 heartbeat IPC: 0.37866 cumulative IPC: 0.34382 (Simulation time: 0 hr 4 min 45 sec) 
Heartbeat CPU  0 instructions:  193000003 cycles:  335508434 heartbeat IPC: 0.60405 cumulative IPC: 0.34542 (Simulation time: 0 hr 4 min 46 sec) 
Heartbeat CPU  0 instructions:  194000001 cycles:  337101980 heartbeat IPC: 0.62753 cumulative IPC: 0.34708 (Simulation time: 0 hr 4 min 47 sec) 
Heartbeat CPU  0 instructions:  195000001 cycles:  340625842 heartbeat IPC: 0.28378 cumulative IPC: 0.34627 (Simulation time: 0 hr 4 min 49 sec) 
Heartbeat CPU  0 instructions:  196000000 cycles:  343312427 heartbeat IPC: 0.37222 cumulative IPC: 0.34652 (Simulation time: 0 hr 4 min 51 sec) 
Heartbeat CPU  0 instructions:  197000000 cycles:  345752167 heartbeat IPC: 0.40988 cumulative IPC: 0.34707 (Simulation time: 0 hr 4 min 53 sec) 
Heartbeat CPU  0 instructions:  198000000 cycles:  349093610 heartbeat IPC: 0.29927 cumulative IPC: 0.34651 (Simulation time: 0 hr 4 min 55 sec) 
Heartbeat CPU  0 instructions:  199000000 cycles:  351638520 heartbeat IPC: 0.39294 cumulative IPC: 0.34692 (Simulation time: 0 hr 4 min 57 sec) 
Heartbeat CPU  0 instructions:  200000000 cycles:  357186817 heartbeat IPC: 0.18024 cumulative IPC: 0.34374 (Simulation time: 0 hr 5 min 0 sec) 
Finished CPU 0 instructions: 100000000 cycles: 290913619 cumulative IPC: 0.34374 (Simulation time: 0 hr 5 min 0 sec) 

ChampSim completed all CPUs

[ROI Statistics]
Core_0_instructions 100000000
Core_0_cycles 290913619
Core_0_IPC 0.34374

Core_0_branch_prediction_accuracy 95.09858
Core_0_branch_MPKI 8.66907
Core_0_average_ROB_occupancy_at_mispredict 82.15294

Core_0_L1D_total_access 35158118
Core_0_L1D_total_hit 27907282
Core_0_L1D_total_miss 7250836
Core_0_L1D_loads 15561112
Core_0_L1D_load_hit 12262403
Core_0_L1D_load_miss 3298709
Core_0_L1D_RFOs 5449616
Core_0_L1D_RFO_hit 4613625
Core_0_L1D_RFO_miss 835991
Core_0_L1D_prefetches 14147390
Core_0_L1D_prefetch_hit 11031254
Core_0_L1D_prefetch_miss 3116136
Core_0_L1D_writebacks 0
Core_0_L1D_writeback_hit 0
Core_0_L1D_writeback_miss 0
Core_0_L1D_prefetch_requested 43507781
Core_0_L1D_prefetch_issued 42994924
Core_0_L1D_prefetch_useful 3106777
Core_0_L1D_prefetch_useless 3674205
Core_0_L1D_prefetch_late 525512
Core_0_L1D_average_miss_latency 13128455.77642

Core_0_L1I_total_access 20892790
Core_0_L1I_total_hit 20892158
Core_0_L1I_total_miss 632
Core_0_L1I_loads 20892790
Core_0_L1I_load_hit 20892158
Core_0_L1I_load_miss 632
Core_0_L1I_RFOs 0
Core_0_L1I_RFO_hit 0
Core_0_L1I_RFO_miss 0
Core_0_L1I_prefetches 0
Core_0_L1I_prefetch_hit 0
Core_0_L1I_prefetch_miss 0
Core_0_L1I_writebacks 0
Core_0_L1I_writeback_hit 0
Core_0_L1I_writeback_miss 0
Core_0_L1I_prefetch_requested 0
Core_0_L1I_prefetch_issued 0
Core_0_L1I_prefetch_useful 0
Core_0_L1I_prefetch_useless 0
Core_0_L1I_prefetch_late 0
Core_0_L1I_average_miss_latency 210.08861

Core_0_L2C_total_access 13063322
Core_0_L2C_total_hit 7751792
Core_0_L2C_total_miss 5311530
Core_0_L2C_loads 2886700
Core_0_L2C_load_hit 1470248
Core_0_L2C_load_miss 1416452
Core_0_L2C_RFOs 835796
Core_0_L2C_RFO_hit 140571
Core_0_L2C_RFO_miss 695225
Core_0_L2C_prefetches 6866060
Core_0_L2C_prefetch_hit 3666339
Core_0_L2C_prefetch_miss 3199721
Core_0_L2C_writebacks 2474766
Core_0_L2C_writeback_hit 2474634
Core_0_L2C_writeback_miss 132
Core_0_L2C_prefetch_requested 11812047
Core_0_L2C_prefetch_issued 11625594
Core_0_L2C_prefetch_useful 1199375
Core_0_L2C_prefetch_useless 5401286
Core_0_L2C_prefetch_late 49880
Core_0_L2C_average_miss_latency 201.59507

Core_0_LLC_total_access 9043376
Core_0_LLC_total_hit 4923041
Core_0_LLC_total_miss 4120335
Core_0_LLC_loads 1372800
Core_0_LLC_load_hit 555040
Core_0_LLC_load_miss 817760
Core_0_LLC_RFOs 695191
Core_0_LLC_RFO_hit 115389
Core_0_LLC_RFO_miss 579802
Core_0_LLC_prefetches 5322737
Core_0_LLC_prefetch_hit 2645573
Core_0_LLC_prefetch_miss 2677164
Core_0_LLC_writebacks 1652648
Core_0_LLC_writeback_hit 1607039
Core_0_LLC_writeback_miss 45609
Core_0_LLC_prefetch_requested 8388248
Core_0_LLC_prefetch_issued 8255985
Core_0_LLC_prefetch_useful 651471
Core_0_LLC_prefetch_useless 5052372
Core_0_LLC_prefetch_late 20029
Core_0_LLC_average_miss_latency 300.28272

Core_0_major_page_fault 0
Core_0_minor_page_fault 12935

CPU 0 L1D next line prefetcher final stats
CPU 0 L2C next line prefetcher final stats
LLC Next Line Prefetcher Final Stats: none
Channel_0_RQ_row_buffer_hit 1060094
Channel_0_RQ_row_buffer_miss 3013601
Channel_0_WQ_row_buffer_hit 329862
Channel_0_WQ_row_buffer_miss 914569
Channel_0_WQ_full 0
Channel_0_dbus_congested 3011349

avg_congested_cycle 10
