*************************************************
   ChampSim Multicore Out-of-Order Simulator
   Last compiled: Dec 24 2023 18:43:03
*************************************************

trace_0 ./test_trace/450.soplex-247B.champsimtrace.xz
CPU 0 L1D next line prefetcher
Initialize DRRIP state
Assign rand_sets[0]: 454  LLC: 2048
rand_sets[0]: 454
Assign rand_sets[1]: 1662  LLC: 2048
rand_sets[1]: 1662
Assign rand_sets[2]: 1921  LLC: 2048
rand_sets[2]: 1921
Assign rand_sets[3]: 1131  LLC: 2048
rand_sets[3]: 1131
Assign rand_sets[4]: 331  LLC: 2048
rand_sets[4]: 331
Assign rand_sets[5]: 1531  LLC: 2048
rand_sets[5]: 1531
Assign rand_sets[6]: 482  LLC: 2048
rand_sets[6]: 482
Assign rand_sets[7]: 1275  LLC: 2048
rand_sets[7]: 1275
Assign rand_sets[8]: 1876  LLC: 2048
rand_sets[8]: 1876
Assign rand_sets[9]: 2038  LLC: 2048
rand_sets[9]: 2038
Assign rand_sets[10]: 701  LLC: 2048
rand_sets[10]: 701
Assign rand_sets[11]: 479  LLC: 2048
rand_sets[11]: 479
Assign rand_sets[12]: 892  LLC: 2048
rand_sets[12]: 892
Assign rand_sets[13]: 1820  LLC: 2048
rand_sets[13]: 1820
Assign rand_sets[14]: 1505  LLC: 2048
rand_sets[14]: 1505
Assign rand_sets[15]: 1159  LLC: 2048
rand_sets[15]: 1159
Assign rand_sets[16]: 513  LLC: 2048
rand_sets[16]: 513
Assign rand_sets[17]: 703  LLC: 2048
rand_sets[17]: 703
Assign rand_sets[18]: 561  LLC: 2048
rand_sets[18]: 561
Assign rand_sets[19]: 990  LLC: 2048
rand_sets[19]: 990
Assign rand_sets[20]: 342  LLC: 2048
rand_sets[20]: 342
Assign rand_sets[21]: 882  LLC: 2048
rand_sets[21]: 882
Assign rand_sets[22]: 15  LLC: 2048
rand_sets[22]: 15
Assign rand_sets[23]: 71  LLC: 2048
rand_sets[23]: 71
Assign rand_sets[24]: 1127  LLC: 2048
rand_sets[24]: 1127
Assign rand_sets[25]: 1382  LLC: 2048
rand_sets[25]: 1382
Assign rand_sets[26]: 647  LLC: 2048
rand_sets[26]: 647
Assign rand_sets[27]: 857  LLC: 2048
rand_sets[27]: 857
Assign rand_sets[28]: 1450  LLC: 2048
rand_sets[28]: 1450
Assign rand_sets[29]: 1160  LLC: 2048
rand_sets[29]: 1160
Assign rand_sets[30]: 1852  LLC: 2048
rand_sets[30]: 1852
Assign rand_sets[31]: 1881  LLC: 2048
rand_sets[31]: 1881
Assign rand_sets[32]: 1770  LLC: 2048
rand_sets[32]: 1770
Assign rand_sets[33]: 1622  LLC: 2048
rand_sets[33]: 1622
Assign rand_sets[34]: 275  LLC: 2048
rand_sets[34]: 275
Assign rand_sets[35]: 635  LLC: 2048
rand_sets[35]: 635
Assign rand_sets[36]: 466  LLC: 2048
rand_sets[36]: 466
Assign rand_sets[37]: 1413  LLC: 2048
rand_sets[37]: 1413
Assign rand_sets[38]: 417  LLC: 2048
rand_sets[38]: 417
Assign rand_sets[39]: 472  LLC: 2048
rand_sets[39]: 472
Assign rand_sets[40]: 1340  LLC: 2048
rand_sets[40]: 1340
Assign rand_sets[41]: 852  LLC: 2048
rand_sets[41]: 852
Assign rand_sets[42]: 1365  LLC: 2048
rand_sets[42]: 1365
Assign rand_sets[43]: 47  LLC: 2048
rand_sets[43]: 47
Assign rand_sets[44]: 823  LLC: 2048
rand_sets[44]: 823
Assign rand_sets[45]: 686  LLC: 2048
rand_sets[45]: 686
Assign rand_sets[46]: 1637  LLC: 2048
rand_sets[46]: 1637
Assign rand_sets[47]: 1115  LLC: 2048
rand_sets[47]: 1115
Assign rand_sets[48]: 986  LLC: 2048
rand_sets[48]: 986
Assign rand_sets[49]: 258  LLC: 2048
rand_sets[49]: 258
Assign rand_sets[50]: 633  LLC: 2048
rand_sets[50]: 633
Assign rand_sets[51]: 920  LLC: 2048
rand_sets[51]: 920
Assign rand_sets[52]: 204  LLC: 2048
rand_sets[52]: 204
Assign rand_sets[53]: 227  LLC: 2048
rand_sets[53]: 227
Assign rand_sets[54]: 1818  LLC: 2048
rand_sets[54]: 1818
Assign rand_sets[55]: 886  LLC: 2048
rand_sets[55]: 886
Assign rand_sets[56]: 1422  LLC: 2048
rand_sets[56]: 1422
Assign rand_sets[57]: 607  LLC: 2048
rand_sets[57]: 607
Assign rand_sets[58]: 217  LLC: 2048
rand_sets[58]: 217
Assign rand_sets[59]: 1945  LLC: 2048
rand_sets[59]: 1945
Assign rand_sets[60]: 143  LLC: 2048
rand_sets[60]: 143
Assign rand_sets[61]: 1311  LLC: 2048
rand_sets[61]: 1311
Assign rand_sets[62]: 319  LLC: 2048
rand_sets[62]: 319
Assign rand_sets[63]: 1846  LLC: 2048
rand_sets[63]: 1846
warmup_instructions 100000000
simulation_instructions 100000000
champsim_seed 223

num_cpus 1
cpu_freq 4000
dram_io_freq 2400
page_size 4096
block_size 64
max_read_per_cycle 8
max_fill_per_cycle 1
dram_channels 1
dram_ranks 1
dram_banks 8
dram_rows 65536
dram_columns 128
dram_row_size 8
dram_size 4096
dram_pages 1048576

fetch_width 6
decode_width 6
exec_width 4
lq_width 2
sq_width 2
retire_width 4
scheduler_size 128
branch_mispredict_penalty 20
rob_size 256
lq_size 72
sq_size 56
num_instr_destinations_sparc 4
num_instr_destinations 2
num_instr_sources 4

itlb_set 16
itlb_way 8
itlb_rq_size 16
itlb_wq_size 16
itlb_pq_size 0
itlb_mshr_size 8
itlb_latency 1

dtlb_set 16
dtlb_way 4
dtlb_rq_size 16
dtlb_wq_size 16
dtlb_pq_size 0
dtlb_mshr_size 8
dtlb_latency 1

stlb_set 128
stlb_way 12
stlb_rq_size 32
stlb_wq_size 32
stlb_pq_size 0
stlb_mshr_size 16
stlb_latency 8

l1i_size 32
l1i_set 64
l1i_way 8
l1i_rq_size 64
l1i_wq_size 64
l1i_pq_size 8
l1i_mshr_size 8
l1i_latency 1

l1d_size 32
l1d_set 64
l1d_way 8
l1d_rq_size 64
l1d_wq_size 64
l1d_pq_size 8
l1d_mshr_size 16
l1d_latency 4

l2c_size 512
l2c_set 1024
l2c_way 8
l2c_rq_size 32
l2c_wq_size 32
l2c_pq_size 16
l2c_mshr_size 32
l2c_latency 10

llc_size 2048
llc_set 2048
llc_way 16
llc_rq_size 32
llc_wq_size 32
llc_pq_size 32
llc_mshr_size 64
llc_latency 20

dram_channel_width 8
dram_wq_size 64
dram_rq_size 64
tRP 15
tRCD 15
tCAS 12.5
dram_dbus_turn_around_time 30
dram_write_high_wm 56
dram_write_low_wm 48
min_dram_writes_per_switch 16
dram_mtps 2400
dram_dbus_return_time 13


Heartbeat CPU  0 instructions:    1000002 cycles:     753746 heartbeat IPC: 1.32671 cumulative IPC: 1.32671 (Simulation time: 0 hr 0 min 1 sec) 
Heartbeat CPU  0 instructions:    2000001 cycles:    1392458 heartbeat IPC: 1.56565 cumulative IPC: 1.43631 (Simulation time: 0 hr 0 min 2 sec) 
Heartbeat CPU  0 instructions:    3000001 cycles:    2117045 heartbeat IPC: 1.38010 cumulative IPC: 1.41707 (Simulation time: 0 hr 0 min 4 sec) 
Heartbeat CPU  0 instructions:    4000000 cycles:    2657993 heartbeat IPC: 1.84860 cumulative IPC: 1.50489 (Simulation time: 0 hr 0 min 5 sec) 
Heartbeat CPU  0 instructions:    5000000 cycles:    3563268 heartbeat IPC: 1.10464 cumulative IPC: 1.40321 (Simulation time: 0 hr 0 min 6 sec) 
Heartbeat CPU  0 instructions:    6000001 cycles:    4451884 heartbeat IPC: 1.12535 cumulative IPC: 1.34774 (Simulation time: 0 hr 0 min 7 sec) 
Heartbeat CPU  0 instructions:    7000000 cycles:    5249529 heartbeat IPC: 1.25369 cumulative IPC: 1.33345 (Simulation time: 0 hr 0 min 9 sec) 
Heartbeat CPU  0 instructions:    8000000 cycles:    5939950 heartbeat IPC: 1.44839 cumulative IPC: 1.34681 (Simulation time: 0 hr 0 min 10 sec) 
Heartbeat CPU  0 instructions:    9000001 cycles:    6557163 heartbeat IPC: 1.62019 cumulative IPC: 1.37255 (Simulation time: 0 hr 0 min 11 sec) 
Heartbeat CPU  0 instructions:   10000000 cycles:    7103692 heartbeat IPC: 1.82973 cumulative IPC: 1.40772 (Simulation time: 0 hr 0 min 12 sec) 
Heartbeat CPU  0 instructions:   11000003 cycles:    7691403 heartbeat IPC: 1.70152 cumulative IPC: 1.43017 (Simulation time: 0 hr 0 min 13 sec) 
Heartbeat CPU  0 instructions:   12000000 cycles:    8361644 heartbeat IPC: 1.49200 cumulative IPC: 1.43512 (Simulation time: 0 hr 0 min 14 sec) 
Heartbeat CPU  0 instructions:   13000000 cycles:    9239365 heartbeat IPC: 1.13931 cumulative IPC: 1.40702 (Simulation time: 0 hr 0 min 15 sec) 
Heartbeat CPU  0 instructions:   14000002 cycles:    9985207 heartbeat IPC: 1.34077 cumulative IPC: 1.40207 (Simulation time: 0 hr 0 min 16 sec) 
Heartbeat CPU  0 instructions:   15000002 cycles:   10575787 heartbeat IPC: 1.69325 cumulative IPC: 1.41833 (Simulation time: 0 hr 0 min 17 sec) 
Heartbeat CPU  0 instructions:   16000000 cycles:   11098261 heartbeat IPC: 1.91397 cumulative IPC: 1.44167 (Simulation time: 0 hr 0 min 18 sec) 
Heartbeat CPU  0 instructions:   17000000 cycles:   11907992 heartbeat IPC: 1.23498 cumulative IPC: 1.42761 (Simulation time: 0 hr 0 min 19 sec) 
Heartbeat CPU  0 instructions:   18000001 cycles:   12497906 heartbeat IPC: 1.69516 cumulative IPC: 1.44024 (Simulation time: 0 hr 0 min 20 sec) 
Heartbeat CPU  0 instructions:   19000001 cycles:   13038374 heartbeat IPC: 1.85025 cumulative IPC: 1.45724 (Simulation time: 0 hr 0 min 22 sec) 
Heartbeat CPU  0 instructions:   20000000 cycles:   13630524 heartbeat IPC: 1.68876 cumulative IPC: 1.46730 (Simulation time: 0 hr 0 min 23 sec) 
Heartbeat CPU  0 instructions:   21000001 cycles:   14281504 heartbeat IPC: 1.53615 cumulative IPC: 1.47043 (Simulation time: 0 hr 0 min 24 sec) 
Heartbeat CPU  0 instructions:   22000003 cycles:   15157237 heartbeat IPC: 1.14190 cumulative IPC: 1.45145 (Simulation time: 0 hr 0 min 25 sec) 
Heartbeat CPU  0 instructions:   23000001 cycles:   15921537 heartbeat IPC: 1.30838 cumulative IPC: 1.44458 (Simulation time: 0 hr 0 min 26 sec) 
Heartbeat CPU  0 instructions:   24000000 cycles:   16509914 heartbeat IPC: 1.69959 cumulative IPC: 1.45367 (Simulation time: 0 hr 0 min 27 sec) 
Heartbeat CPU  0 instructions:   25000000 cycles:   17045582 heartbeat IPC: 1.86683 cumulative IPC: 1.46666 (Simulation time: 0 hr 0 min 28 sec) 
Heartbeat CPU  0 instructions:   26000001 cycles:   17845228 heartbeat IPC: 1.25055 cumulative IPC: 1.45697 (Simulation time: 0 hr 0 min 29 sec) 
Heartbeat CPU  0 instructions:   27000003 cycles:   18400772 heartbeat IPC: 1.80004 cumulative IPC: 1.46733 (Simulation time: 0 hr 0 min 30 sec) 
Heartbeat CPU  0 instructions:   28000000 cycles:   18959172 heartbeat IPC: 1.79083 cumulative IPC: 1.47686 (Simulation time: 0 hr 0 min 31 sec) 
Heartbeat CPU  0 instructions:   29000002 cycles:   19513197 heartbeat IPC: 1.80498 cumulative IPC: 1.48617 (Simulation time: 0 hr 0 min 33 sec) 
Heartbeat CPU  0 instructions:   30000001 cycles:   20092138 heartbeat IPC: 1.72729 cumulative IPC: 1.49312 (Simulation time: 0 hr 0 min 34 sec) 
Heartbeat CPU  0 instructions:   31000002 cycles:   20957292 heartbeat IPC: 1.15586 cumulative IPC: 1.47920 (Simulation time: 0 hr 0 min 35 sec) 
Heartbeat CPU  0 instructions:   32000000 cycles:   21775306 heartbeat IPC: 1.22247 cumulative IPC: 1.46955 (Simulation time: 0 hr 0 min 35 sec) 
Heartbeat CPU  0 instructions:   33000000 cycles:   22368197 heartbeat IPC: 1.68665 cumulative IPC: 1.47531 (Simulation time: 0 hr 0 min 36 sec) 
Heartbeat CPU  0 instructions:   34000000 cycles:   22973853 heartbeat IPC: 1.65110 cumulative IPC: 1.47994 (Simulation time: 0 hr 0 min 37 sec) 
Heartbeat CPU  0 instructions:   35000002 cycles:   23699722 heartbeat IPC: 1.37766 cumulative IPC: 1.47681 (Simulation time: 0 hr 0 min 38 sec) 
Heartbeat CPU  0 instructions:   36000000 cycles:   24285289 heartbeat IPC: 1.70774 cumulative IPC: 1.48238 (Simulation time: 0 hr 0 min 40 sec) 
Heartbeat CPU  0 instructions:   37000002 cycles:   24826901 heartbeat IPC: 1.84634 cumulative IPC: 1.49032 (Simulation time: 0 hr 0 min 41 sec) 
Heartbeat CPU  0 instructions:   38000002 cycles:   25392969 heartbeat IPC: 1.76657 cumulative IPC: 1.49648 (Simulation time: 0 hr 0 min 42 sec) 
Heartbeat CPU  0 instructions:   39000000 cycles:   25966448 heartbeat IPC: 1.74374 cumulative IPC: 1.50194 (Simulation time: 0 hr 0 min 43 sec) 
Heartbeat CPU  0 instructions:   40000000 cycles:   26736206 heartbeat IPC: 1.29911 cumulative IPC: 1.49610 (Simulation time: 0 hr 0 min 44 sec) 
Heartbeat CPU  0 instructions:   41000001 cycles:   27598952 heartbeat IPC: 1.15909 cumulative IPC: 1.48556 (Simulation time: 0 hr 0 min 45 sec) 
Heartbeat CPU  0 instructions:   42000001 cycles:   28247911 heartbeat IPC: 1.54093 cumulative IPC: 1.48684 (Simulation time: 0 hr 0 min 46 sec) 
Heartbeat CPU  0 instructions:   43000000 cycles:   28871331 heartbeat IPC: 1.60405 cumulative IPC: 1.48937 (Simulation time: 0 hr 0 min 47 sec) 
Heartbeat CPU  0 instructions:   44000000 cycles:   29496678 heartbeat IPC: 1.59911 cumulative IPC: 1.49169 (Simulation time: 0 hr 0 min 48 sec) 
Heartbeat CPU  0 instructions:   45000000 cycles:   30211884 heartbeat IPC: 1.39820 cumulative IPC: 1.48948 (Simulation time: 0 hr 0 min 49 sec) 
Heartbeat CPU  0 instructions:   46000001 cycles:   30749184 heartbeat IPC: 1.86116 cumulative IPC: 1.49597 (Simulation time: 0 hr 0 min 50 sec) 
Heartbeat CPU  0 instructions:   47000000 cycles:   31308834 heartbeat IPC: 1.78683 cumulative IPC: 1.50117 (Simulation time: 0 hr 0 min 51 sec) 
Heartbeat CPU  0 instructions:   48000000 cycles:   31888619 heartbeat IPC: 1.72478 cumulative IPC: 1.50524 (Simulation time: 0 hr 0 min 53 sec) 
Heartbeat CPU  0 instructions:   49000001 cycles:   32622449 heartbeat IPC: 1.36271 cumulative IPC: 1.50203 (Simulation time: 0 hr 0 min 54 sec) 
Heartbeat CPU  0 instructions:   50000001 cycles:   33487599 heartbeat IPC: 1.15587 cumulative IPC: 1.49309 (Simulation time: 0 hr 0 min 54 sec) 
Heartbeat CPU  0 instructions:   51000003 cycles:   34179579 heartbeat IPC: 1.44513 cumulative IPC: 1.49212 (Simulation time: 0 hr 0 min 55 sec) 
Heartbeat CPU  0 instructions:   52000000 cycles:   34771670 heartbeat IPC: 1.68892 cumulative IPC: 1.49547 (Simulation time: 0 hr 0 min 56 sec) 
Heartbeat CPU  0 instructions:   53000000 cycles:   35348326 heartbeat IPC: 1.73414 cumulative IPC: 1.49936 (Simulation time: 0 hr 0 min 57 sec) 
Heartbeat CPU  0 instructions:   54000002 cycles:   36104617 heartbeat IPC: 1.32225 cumulative IPC: 1.49565 (Simulation time: 0 hr 0 min 59 sec) 
Heartbeat CPU  0 instructions:   55000001 cycles:   36672175 heartbeat IPC: 1.76193 cumulative IPC: 1.49977 (Simulation time: 0 hr 1 min 0 sec) 
Heartbeat CPU  0 instructions:   56000000 cycles:   37225392 heartbeat IPC: 1.80761 cumulative IPC: 1.50435 (Simulation time: 0 hr 1 min 1 sec) 
Heartbeat CPU  0 instructions:   57000002 cycles:   37807109 heartbeat IPC: 1.71905 cumulative IPC: 1.50765 (Simulation time: 0 hr 1 min 2 sec) 
Heartbeat CPU  0 instructions:   58000001 cycles:   38534166 heartbeat IPC: 1.37541 cumulative IPC: 1.50516 (Simulation time: 0 hr 1 min 3 sec) 
Heartbeat CPU  0 instructions:   59000001 cycles:   39401458 heartbeat IPC: 1.15301 cumulative IPC: 1.49741 (Simulation time: 0 hr 1 min 4 sec) 
Heartbeat CPU  0 instructions:   60000000 cycles:   40118598 heartbeat IPC: 1.39443 cumulative IPC: 1.49557 (Simulation time: 0 hr 1 min 5 sec) 
Heartbeat CPU  0 instructions:   61000003 cycles:   40719879 heartbeat IPC: 1.66312 cumulative IPC: 1.49804 (Simulation time: 0 hr 1 min 6 sec) 
Heartbeat CPU  0 instructions:   62000001 cycles:   41285195 heartbeat IPC: 1.76892 cumulative IPC: 1.50175 (Simulation time: 0 hr 1 min 7 sec) 
Heartbeat CPU  0 instructions:   63000000 cycles:   42071988 heartbeat IPC: 1.27098 cumulative IPC: 1.49743 (Simulation time: 0 hr 1 min 8 sec) 
Heartbeat CPU  0 instructions:   64000000 cycles:   42650200 heartbeat IPC: 1.72947 cumulative IPC: 1.50058 (Simulation time: 0 hr 1 min 9 sec) 
Heartbeat CPU  0 instructions:   65000003 cycles:   43201589 heartbeat IPC: 1.81361 cumulative IPC: 1.50457 (Simulation time: 0 hr 1 min 10 sec) 
Heartbeat CPU  0 instructions:   66000000 cycles:   43784778 heartbeat IPC: 1.71470 cumulative IPC: 1.50737 (Simulation time: 0 hr 1 min 12 sec) 
Heartbeat CPU  0 instructions:   67000000 cycles:   44466056 heartbeat IPC: 1.46783 cumulative IPC: 1.50677 (Simulation time: 0 hr 1 min 13 sec) 
Heartbeat CPU  0 instructions:   68000000 cycles:   45338824 heartbeat IPC: 1.14578 cumulative IPC: 1.49982 (Simulation time: 0 hr 1 min 13 sec) 
Heartbeat CPU  0 instructions:   69000001 cycles:   46088031 heartbeat IPC: 1.33475 cumulative IPC: 1.49713 (Simulation time: 0 hr 1 min 14 sec) 
Heartbeat CPU  0 instructions:   70000000 cycles:   46690747 heartbeat IPC: 1.65915 cumulative IPC: 1.49923 (Simulation time: 0 hr 1 min 15 sec) 
Heartbeat CPU  0 instructions:   71000002 cycles:   47217613 heartbeat IPC: 1.89802 cumulative IPC: 1.50368 (Simulation time: 0 hr 1 min 16 sec) 
Heartbeat CPU  0 instructions:   72000000 cycles:   48022554 heartbeat IPC: 1.24232 cumulative IPC: 1.49930 (Simulation time: 0 hr 1 min 17 sec) 
Heartbeat CPU  0 instructions:   73000001 cycles:   48602084 heartbeat IPC: 1.72554 cumulative IPC: 1.50199 (Simulation time: 0 hr 1 min 19 sec) 
Heartbeat CPU  0 instructions:   74000002 cycles:   49147785 heartbeat IPC: 1.83251 cumulative IPC: 1.50566 (Simulation time: 0 hr 1 min 20 sec) 
Heartbeat CPU  0 instructions:   75000000 cycles:   49740623 heartbeat IPC: 1.68680 cumulative IPC: 1.50782 (Simulation time: 0 hr 1 min 21 sec) 
Heartbeat CPU  0 instructions:   76000000 cycles:   50386644 heartbeat IPC: 1.54794 cumulative IPC: 1.50834 (Simulation time: 0 hr 1 min 22 sec) 
Heartbeat CPU  0 instructions:   77000001 cycles:   51256672 heartbeat IPC: 1.14939 cumulative IPC: 1.50224 (Simulation time: 0 hr 1 min 23 sec) 
Heartbeat CPU  0 instructions:   78000001 cycles:   52027815 heartbeat IPC: 1.29678 cumulative IPC: 1.49920 (Simulation time: 0 hr 1 min 24 sec) 
Heartbeat CPU  0 instructions:   79000003 cycles:   52631486 heartbeat IPC: 1.65653 cumulative IPC: 1.50100 (Simulation time: 0 hr 1 min 24 sec) 
Heartbeat CPU  0 instructions:   80000000 cycles:   53188959 heartbeat IPC: 1.79380 cumulative IPC: 1.50407 (Simulation time: 0 hr 1 min 26 sec) 
Heartbeat CPU  0 instructions:   81000001 cycles:   53978119 heartbeat IPC: 1.26717 cumulative IPC: 1.50061 (Simulation time: 0 hr 1 min 27 sec) 
Heartbeat CPU  0 instructions:   82000002 cycles:   54569592 heartbeat IPC: 1.69070 cumulative IPC: 1.50267 (Simulation time: 0 hr 1 min 28 sec) 
Heartbeat CPU  0 instructions:   83000003 cycles:   55132143 heartbeat IPC: 1.77762 cumulative IPC: 1.50547 (Simulation time: 0 hr 1 min 29 sec) 
Heartbeat CPU  0 instructions:   84000000 cycles:   55684380 heartbeat IPC: 1.81081 cumulative IPC: 1.50850 (Simulation time: 0 hr 1 min 30 sec) 
Heartbeat CPU  0 instructions:   85000001 cycles:   56262774 heartbeat IPC: 1.72893 cumulative IPC: 1.51077 (Simulation time: 0 hr 1 min 32 sec) 
Heartbeat CPU  0 instructions:   86000000 cycles:   57131340 heartbeat IPC: 1.15132 cumulative IPC: 1.50530 (Simulation time: 0 hr 1 min 33 sec) 
Heartbeat CPU  0 instructions:   87000000 cycles:   57955403 heartbeat IPC: 1.21350 cumulative IPC: 1.50115 (Simulation time: 0 hr 1 min 33 sec) 
Heartbeat CPU  0 instructions:   88000000 cycles:   58568599 heartbeat IPC: 1.63080 cumulative IPC: 1.50251 (Simulation time: 0 hr 1 min 34 sec) 
Heartbeat CPU  0 instructions:   89000003 cycles:   59195907 heartbeat IPC: 1.59412 cumulative IPC: 1.50348 (Simulation time: 0 hr 1 min 35 sec) 
Heartbeat CPU  0 instructions:   90000003 cycles:   59891402 heartbeat IPC: 1.43782 cumulative IPC: 1.50272 (Simulation time: 0 hr 1 min 36 sec) 
Heartbeat CPU  0 instructions:   91000001 cycles:   60544954 heartbeat IPC: 1.53010 cumulative IPC: 1.50302 (Simulation time: 0 hr 1 min 38 sec) 
Heartbeat CPU  0 instructions:   92000000 cycles:   61119501 heartbeat IPC: 1.74050 cumulative IPC: 1.50525 (Simulation time: 0 hr 1 min 39 sec) 
Heartbeat CPU  0 instructions:   93000003 cycles:   61663913 heartbeat IPC: 1.83685 cumulative IPC: 1.50818 (Simulation time: 0 hr 1 min 40 sec) 
Heartbeat CPU  0 instructions:   94000002 cycles:   62244075 heartbeat IPC: 1.72365 cumulative IPC: 1.51018 (Simulation time: 0 hr 1 min 41 sec) 
Heartbeat CPU  0 instructions:   95000003 cycles:   63076083 heartbeat IPC: 1.20191 cumulative IPC: 1.50612 (Simulation time: 0 hr 1 min 42 sec) 
Heartbeat CPU  0 instructions:   96000000 cycles:   63920815 heartbeat IPC: 1.18380 cumulative IPC: 1.50186 (Simulation time: 0 hr 1 min 43 sec) 
Heartbeat CPU  0 instructions:   97000002 cycles:   64551808 heartbeat IPC: 1.58481 cumulative IPC: 1.50267 (Simulation time: 0 hr 1 min 44 sec) 
Heartbeat CPU  0 instructions:   98000003 cycles:   65183170 heartbeat IPC: 1.58388 cumulative IPC: 1.50346 (Simulation time: 0 hr 1 min 45 sec) 
Heartbeat CPU  0 instructions:   99000002 cycles:   65836556 heartbeat IPC: 1.53049 cumulative IPC: 1.50372 (Simulation time: 0 hr 1 min 46 sec) 
Heartbeat CPU  0 instructions:  100000000 cycles:   66422257 heartbeat IPC: 1.70735 cumulative IPC: 1.50552 (Simulation time: 0 hr 1 min 47 sec) 

Warmup complete CPU  0 instructions:  100000002 cycles:   66422259 (Simulation time: 0 hr 1 min 47 sec) 

Heartbeat CPU  0 instructions:  101000001 cycles:   73417443 heartbeat IPC: 0.14296 cumulative IPC: 0.14296 (Simulation time: 0 hr 1 min 50 sec) 
Heartbeat CPU  0 instructions:  102000001 cycles:   76983049 heartbeat IPC: 0.28046 cumulative IPC: 0.18938 (Simulation time: 0 hr 1 min 52 sec) 
Heartbeat CPU  0 instructions:  103000001 cycles:   81233715 heartbeat IPC: 0.23526 cumulative IPC: 0.20255 (Simulation time: 0 hr 1 min 55 sec) 
Heartbeat CPU  0 instructions:  104000000 cycles:   85603514 heartbeat IPC: 0.22884 cumulative IPC: 0.20854 (Simulation time: 0 hr 1 min 58 sec) 
Heartbeat CPU  0 instructions:  105000003 cycles:   88968577 heartbeat IPC: 0.29717 cumulative IPC: 0.22177 (Simulation time: 0 hr 2 min 0 sec) 
Heartbeat CPU  0 instructions:  106000001 cycles:   91998060 heartbeat IPC: 0.33009 cumulative IPC: 0.23460 (Simulation time: 0 hr 2 min 2 sec) 
Heartbeat CPU  0 instructions:  107000003 cycles:   95975729 heartbeat IPC: 0.25140 cumulative IPC: 0.23686 (Simulation time: 0 hr 2 min 5 sec) 
Heartbeat CPU  0 instructions:  108000000 cycles:   99405939 heartbeat IPC: 0.29153 cumulative IPC: 0.24254 (Simulation time: 0 hr 2 min 6 sec) 
Heartbeat CPU  0 instructions:  109000000 cycles:  102851836 heartbeat IPC: 0.29020 cumulative IPC: 0.24705 (Simulation time: 0 hr 2 min 8 sec) 
Heartbeat CPU  0 instructions:  110000001 cycles:  105063378 heartbeat IPC: 0.45217 cumulative IPC: 0.25879 (Simulation time: 0 hr 2 min 10 sec) 
Heartbeat CPU  0 instructions:  111000003 cycles:  107584052 heartbeat IPC: 0.39672 cumulative IPC: 0.26724 (Simulation time: 0 hr 2 min 12 sec) 
Heartbeat CPU  0 instructions:  112000000 cycles:  109511737 heartbeat IPC: 0.51876 cumulative IPC: 0.27849 (Simulation time: 0 hr 2 min 14 sec) 
Heartbeat CPU  0 instructions:  113000000 cycles:  111406839 heartbeat IPC: 0.52768 cumulative IPC: 0.28899 (Simulation time: 0 hr 2 min 15 sec) 
Heartbeat CPU  0 instructions:  114000001 cycles:  112922259 heartbeat IPC: 0.65988 cumulative IPC: 0.30108 (Simulation time: 0 hr 2 min 17 sec) 
Heartbeat CPU  0 instructions:  115000000 cycles:  114982343 heartbeat IPC: 0.48542 cumulative IPC: 0.30890 (Simulation time: 0 hr 2 min 19 sec) 
Heartbeat CPU  0 instructions:  116000000 cycles:  118933702 heartbeat IPC: 0.25308 cumulative IPC: 0.30470 (Simulation time: 0 hr 2 min 21 sec) 
Heartbeat CPU  0 instructions:  117000000 cycles:  121976980 heartbeat IPC: 0.32859 cumulative IPC: 0.30600 (Simulation time: 0 hr 2 min 23 sec) 
Heartbeat CPU  0 instructions:  118000000 cycles:  124773071 heartbeat IPC: 0.35764 cumulative IPC: 0.30848 (Simulation time: 0 hr 2 min 25 sec) 
Heartbeat CPU  0 instructions:  119000000 cycles:  127806783 heartbeat IPC: 0.32963 cumulative IPC: 0.30952 (Simulation time: 0 hr 2 min 27 sec) 
Heartbeat CPU  0 instructions:  120000000 cycles:  130214770 heartbeat IPC: 0.41528 cumulative IPC: 0.31352 (Simulation time: 0 hr 2 min 29 sec) 
Heartbeat CPU  0 instructions:  121000001 cycles:  134854127 heartbeat IPC: 0.21555 cumulative IPC: 0.30687 (Simulation time: 0 hr 2 min 32 sec) 
Heartbeat CPU  0 instructions:  122000001 cycles:  138711908 heartbeat IPC: 0.25922 cumulative IPC: 0.30433 (Simulation time: 0 hr 2 min 34 sec) 
Heartbeat CPU  0 instructions:  123000000 cycles:  140532004 heartbeat IPC: 0.54942 cumulative IPC: 0.31035 (Simulation time: 0 hr 2 min 35 sec) 
Heartbeat CPU  0 instructions:  124000000 cycles:  142007141 heartbeat IPC: 0.67790 cumulative IPC: 0.31752 (Simulation time: 0 hr 2 min 36 sec) 
Heartbeat CPU  0 instructions:  125000000 cycles:  145176916 heartbeat IPC: 0.31548 cumulative IPC: 0.31744 (Simulation time: 0 hr 2 min 38 sec) 
Heartbeat CPU  0 instructions:  126000000 cycles:  147781176 heartbeat IPC: 0.38399 cumulative IPC: 0.31957 (Simulation time: 0 hr 2 min 40 sec) 
Heartbeat CPU  0 instructions:  127000002 cycles:  151904216 heartbeat IPC: 0.24254 cumulative IPC: 0.31586 (Simulation time: 0 hr 2 min 42 sec) 
Heartbeat CPU  0 instructions:  128000000 cycles:  155221670 heartbeat IPC: 0.30144 cumulative IPC: 0.31532 (Simulation time: 0 hr 2 min 44 sec) 
Heartbeat CPU  0 instructions:  129000001 cycles:  157365988 heartbeat IPC: 0.46635 cumulative IPC: 0.31888 (Simulation time: 0 hr 2 min 46 sec) 
Heartbeat CPU  0 instructions:  130000002 cycles:  161792564 heartbeat IPC: 0.22591 cumulative IPC: 0.31456 (Simulation time: 0 hr 2 min 49 sec) 
Heartbeat CPU  0 instructions:  131000000 cycles:  163653037 heartbeat IPC: 0.53750 cumulative IPC: 0.31883 (Simulation time: 0 hr 2 min 50 sec) 
Heartbeat CPU  0 instructions:  132000000 cycles:  165263232 heartbeat IPC: 0.62104 cumulative IPC: 0.32375 (Simulation time: 0 hr 2 min 51 sec) 
Heartbeat CPU  0 instructions:  133000000 cycles:  167162384 heartbeat IPC: 0.52655 cumulative IPC: 0.32758 (Simulation time: 0 hr 2 min 52 sec) 
Heartbeat CPU  0 instructions:  134000000 cycles:  170158429 heartbeat IPC: 0.33377 cumulative IPC: 0.32775 (Simulation time: 0 hr 2 min 54 sec) 
Heartbeat CPU  0 instructions:  135000002 cycles:  174486400 heartbeat IPC: 0.23106 cumulative IPC: 0.32388 (Simulation time: 0 hr 2 min 56 sec) 
Heartbeat CPU  0 instructions:  136000000 cycles:  176895992 heartbeat IPC: 0.41501 cumulative IPC: 0.32587 (Simulation time: 0 hr 2 min 58 sec) 
Heartbeat CPU  0 instructions:  137000000 cycles:  180096491 heartbeat IPC: 0.31245 cumulative IPC: 0.32549 (Simulation time: 0 hr 3 min 0 sec) 
Heartbeat CPU  0 instructions:  138000002 cycles:  182891559 heartbeat IPC: 0.35777 cumulative IPC: 0.32627 (Simulation time: 0 hr 3 min 2 sec) 
Heartbeat CPU  0 instructions:  139000000 cycles:  186754498 heartbeat IPC: 0.25887 cumulative IPC: 0.32410 (Simulation time: 0 hr 3 min 4 sec) 
Heartbeat CPU  0 instructions:  140000000 cycles:  188478287 heartbeat IPC: 0.58012 cumulative IPC: 0.32772 (Simulation time: 0 hr 3 min 5 sec) 
Heartbeat CPU  0 instructions:  141000000 cycles:  190012001 heartbeat IPC: 0.65201 cumulative IPC: 0.33174 (Simulation time: 0 hr 3 min 6 sec) 
Heartbeat CPU  0 instructions:  142000000 cycles:  192412359 heartbeat IPC: 0.41660 cumulative IPC: 0.33336 (Simulation time: 0 hr 3 min 8 sec) 
Heartbeat CPU  0 instructions:  143000003 cycles:  194925240 heartbeat IPC: 0.39795 cumulative IPC: 0.33462 (Simulation time: 0 hr 3 min 9 sec) 
Heartbeat CPU  0 instructions:  144000000 cycles:  199839673 heartbeat IPC: 0.20348 cumulative IPC: 0.32979 (Simulation time: 0 hr 3 min 12 sec) 
Heartbeat CPU  0 instructions:  145000002 cycles:  202303663 heartbeat IPC: 0.40585 cumulative IPC: 0.33117 (Simulation time: 0 hr 3 min 14 sec) 
Heartbeat CPU  0 instructions:  146000003 cycles:  204764072 heartbeat IPC: 0.40644 cumulative IPC: 0.33251 (Simulation time: 0 hr 3 min 15 sec) 
Heartbeat CPU  0 instructions:  147000002 cycles:  208342889 heartbeat IPC: 0.27942 cumulative IPC: 0.33117 (Simulation time: 0 hr 3 min 18 sec) 
Heartbeat CPU  0 instructions:  148000000 cycles:  211589084 heartbeat IPC: 0.30805 cumulative IPC: 0.33065 (Simulation time: 0 hr 3 min 20 sec) 
Heartbeat CPU  0 instructions:  149000000 cycles:  213313309 heartbeat IPC: 0.57997 cumulative IPC: 0.33358 (Simulation time: 0 hr 3 min 21 sec) 
Heartbeat CPU  0 instructions:  150000002 cycles:  214768350 heartbeat IPC: 0.68727 cumulative IPC: 0.33705 (Simulation time: 0 hr 3 min 22 sec) 
Heartbeat CPU  0 instructions:  151000000 cycles:  217605620 heartbeat IPC: 0.35245 cumulative IPC: 0.33734 (Simulation time: 0 hr 3 min 23 sec) 
Heartbeat CPU  0 instructions:  152000000 cycles:  220057202 heartbeat IPC: 0.40790 cumulative IPC: 0.33846 (Simulation time: 0 hr 3 min 25 sec) 
Heartbeat CPU  0 instructions:  153000000 cycles:  224489994 heartbeat IPC: 0.22559 cumulative IPC: 0.33530 (Simulation time: 0 hr 3 min 28 sec) 
Heartbeat CPU  0 instructions:  154000002 cycles:  227777329 heartbeat IPC: 0.30420 cumulative IPC: 0.33467 (Simulation time: 0 hr 3 min 29 sec) 
Heartbeat CPU  0 instructions:  155000002 cycles:  229507733 heartbeat IPC: 0.57790 cumulative IPC: 0.33725 (Simulation time: 0 hr 3 min 31 sec) 
Heartbeat CPU  0 instructions:  156000000 cycles:  233642612 heartbeat IPC: 0.24184 cumulative IPC: 0.33489 (Simulation time: 0 hr 3 min 34 sec) 
Heartbeat CPU  0 instructions:  157000000 cycles:  236425729 heartbeat IPC: 0.35931 cumulative IPC: 0.33529 (Simulation time: 0 hr 3 min 35 sec) 
Heartbeat CPU  0 instructions:  158000003 cycles:  238127846 heartbeat IPC: 0.58751 cumulative IPC: 0.33779 (Simulation time: 0 hr 3 min 36 sec) 
Heartbeat CPU  0 instructions:  159000000 cycles:  239515791 heartbeat IPC: 0.72049 cumulative IPC: 0.34086 (Simulation time: 0 hr 3 min 37 sec) 
Heartbeat CPU  0 instructions:  160000000 cycles:  242991706 heartbeat IPC: 0.28769 cumulative IPC: 0.33981 (Simulation time: 0 hr 3 min 39 sec) 
Heartbeat CPU  0 instructions:  161000003 cycles:  245927547 heartbeat IPC: 0.34062 cumulative IPC: 0.33982 (Simulation time: 0 hr 3 min 41 sec) 
Heartbeat CPU  0 instructions:  162000001 cycles:  249576776 heartbeat IPC: 0.27403 cumulative IPC: 0.33851 (Simulation time: 0 hr 3 min 44 sec) 
Heartbeat CPU  0 instructions:  163000000 cycles:  252930968 heartbeat IPC: 0.29813 cumulative IPC: 0.33779 (Simulation time: 0 hr 3 min 45 sec) 
Heartbeat CPU  0 instructions:  164000000 cycles:  255056476 heartbeat IPC: 0.47048 cumulative IPC: 0.33928 (Simulation time: 0 hr 3 min 47 sec) 
Heartbeat CPU  0 instructions:  165000001 cycles:  259394852 heartbeat IPC: 0.23050 cumulative IPC: 0.33684 (Simulation time: 0 hr 3 min 50 sec) 
Heartbeat CPU  0 instructions:  166000000 cycles:  261316893 heartbeat IPC: 0.52028 cumulative IPC: 0.33864 (Simulation time: 0 hr 3 min 51 sec) 
Heartbeat CPU  0 instructions:  167000001 cycles:  262934510 heartbeat IPC: 0.61819 cumulative IPC: 0.34095 (Simulation time: 0 hr 3 min 52 sec) 
Heartbeat CPU  0 instructions:  168000000 cycles:  264851748 heartbeat IPC: 0.52158 cumulative IPC: 0.34269 (Simulation time: 0 hr 3 min 53 sec) 
Heartbeat CPU  0 instructions:  169000001 cycles:  267842621 heartbeat IPC: 0.33435 cumulative IPC: 0.34257 (Simulation time: 0 hr 3 min 55 sec) 
Heartbeat CPU  0 instructions:  170000002 cycles:  272154063 heartbeat IPC: 0.23194 cumulative IPC: 0.34025 (Simulation time: 0 hr 3 min 57 sec) 
Heartbeat CPU  0 instructions:  171000000 cycles:  274525960 heartbeat IPC: 0.42160 cumulative IPC: 0.34118 (Simulation time: 0 hr 3 min 59 sec) 
Heartbeat CPU  0 instructions:  172000000 cycles:  277777855 heartbeat IPC: 0.30751 cumulative IPC: 0.34066 (Simulation time: 0 hr 4 min 1 sec) 
Heartbeat CPU  0 instructions:  173000000 cycles:  280503551 heartbeat IPC: 0.36688 cumulative IPC: 0.34099 (Simulation time: 0 hr 4 min 3 sec) 
Heartbeat CPU  0 instructions:  174000000 cycles:  284412692 heartbeat IPC: 0.25581 cumulative IPC: 0.33946 (Simulation time: 0 hr 4 min 6 sec) 
Heartbeat CPU  0 instructions:  175000000 cycles:  286136119 heartbeat IPC: 0.58024 cumulative IPC: 0.34135 (Simulation time: 0 hr 4 min 7 sec) 
Heartbeat CPU  0 instructions:  176000000 cycles:  287669797 heartbeat IPC: 0.65203 cumulative IPC: 0.34351 (Simulation time: 0 hr 4 min 8 sec) 
Heartbeat CPU  0 instructions:  177000002 cycles:  290026139 heartbeat IPC: 0.42439 cumulative IPC: 0.34436 (Simulation time: 0 hr 4 min 9 sec) 
Heartbeat CPU  0 instructions:  178000001 cycles:  292574879 heartbeat IPC: 0.39235 cumulative IPC: 0.34490 (Simulation time: 0 hr 4 min 11 sec) 
Heartbeat CPU  0 instructions:  179000002 cycles:  297501464 heartbeat IPC: 0.20298 cumulative IPC: 0.34187 (Simulation time: 0 hr 4 min 13 sec) 
Heartbeat CPU  0 instructions:  180000000 cycles:  300523310 heartbeat IPC: 0.33092 cumulative IPC: 0.34173 (Simulation time: 0 hr 4 min 15 sec) 
Heartbeat CPU  0 instructions:  181000003 cycles:  302411332 heartbeat IPC: 0.52966 cumulative IPC: 0.34324 (Simulation time: 0 hr 4 min 17 sec) 
Heartbeat CPU  0 instructions:  182000000 cycles:  306403864 heartbeat IPC: 0.25047 cumulative IPC: 0.34169 (Simulation time: 0 hr 4 min 19 sec) 
Heartbeat CPU  0 instructions:  183000000 cycles:  309290326 heartbeat IPC: 0.34644 cumulative IPC: 0.34175 (Simulation time: 0 hr 4 min 21 sec) 
Heartbeat CPU  0 instructions:  184000000 cycles:  310988755 heartbeat IPC: 0.58878 cumulative IPC: 0.34346 (Simulation time: 0 hr 4 min 22 sec) 
Heartbeat CPU  0 instructions:  185000002 cycles:  312368616 heartbeat IPC: 0.72471 cumulative IPC: 0.34560 (Simulation time: 0 hr 4 min 23 sec) 
Heartbeat CPU  0 instructions:  186000001 cycles:  315717480 heartbeat IPC: 0.29861 cumulative IPC: 0.34497 (Simulation time: 0 hr 4 min 25 sec) 
Heartbeat CPU  0 instructions:  187000000 cycles:  318583540 heartbeat IPC: 0.34891 cumulative IPC: 0.34502 (Simulation time: 0 hr 4 min 27 sec) 
Heartbeat CPU  0 instructions:  188000000 cycles:  322212361 heartbeat IPC: 0.27557 cumulative IPC: 0.34403 (Simulation time: 0 hr 4 min 29 sec) 
Heartbeat CPU  0 instructions:  189000000 cycles:  325558067 heartbeat IPC: 0.29889 cumulative IPC: 0.34345 (Simulation time: 0 hr 4 min 31 sec) 
Heartbeat CPU  0 instructions:  190000001 cycles:  327419451 heartbeat IPC: 0.53724 cumulative IPC: 0.34483 (Simulation time: 0 hr 4 min 33 sec) 
Heartbeat CPU  0 instructions:  191000002 cycles:  331725292 heartbeat IPC: 0.23224 cumulative IPC: 0.34300 (Simulation time: 0 hr 4 min 35 sec) 
Heartbeat CPU  0 instructions:  192000000 cycles:  334080232 heartbeat IPC: 0.42464 cumulative IPC: 0.34372 (Simulation time: 0 hr 4 min 37 sec) 
Heartbeat CPU  0 instructions:  193000003 cycles:  335743255 heartbeat IPC: 0.60132 cumulative IPC: 0.34531 (Simulation time: 0 hr 4 min 38 sec) 
Heartbeat CPU  0 instructions:  194000001 cycles:  337361902 heartbeat IPC: 0.61780 cumulative IPC: 0.34694 (Simulation time: 0 hr 4 min 39 sec) 
Heartbeat CPU  0 instructions:  195000001 cycles:  340616169 heartbeat IPC: 0.30729 cumulative IPC: 0.34647 (Simulation time: 0 hr 4 min 40 sec) 
Heartbeat CPU  0 instructions:  196000000 cycles:  344279596 heartbeat IPC: 0.27297 cumulative IPC: 0.34550 (Simulation time: 0 hr 4 min 43 sec) 
Heartbeat CPU  0 instructions:  197000000 cycles:  347148195 heartbeat IPC: 0.34860 cumulative IPC: 0.34553 (Simulation time: 0 hr 4 min 45 sec) 
Heartbeat CPU  0 instructions:  198000000 cycles:  350495851 heartbeat IPC: 0.29872 cumulative IPC: 0.34498 (Simulation time: 0 hr 4 min 47 sec) 
Heartbeat CPU  0 instructions:  199000002 cycles:  352770679 heartbeat IPC: 0.43959 cumulative IPC: 0.34573 (Simulation time: 0 hr 4 min 48 sec) 
Heartbeat CPU  0 instructions:  200000000 cycles:  357152410 heartbeat IPC: 0.22822 cumulative IPC: 0.34396 (Simulation time: 0 hr 4 min 51 sec) 
Finished CPU 0 instructions: 100000000 cycles: 290730164 cumulative IPC: 0.34396 (Simulation time: 0 hr 4 min 51 sec) 

ChampSim completed all CPUs

[ROI Statistics]
Core_0_instructions 100000000
Core_0_cycles 290730164
Core_0_IPC 0.34396

Core_0_branch_prediction_accuracy 95.09858
Core_0_branch_MPKI 8.66907
Core_0_average_ROB_occupancy_at_mispredict 83.05741

Core_0_L1D_total_access 34678566
Core_0_L1D_total_hit 27427543
Core_0_L1D_total_miss 7251023
Core_0_L1D_loads 15448595
Core_0_L1D_load_hit 12099133
Core_0_L1D_load_miss 3349462
Core_0_L1D_RFOs 5467138
Core_0_L1D_RFO_hit 4631129
Core_0_L1D_RFO_miss 836009
Core_0_L1D_prefetches 13762833
Core_0_L1D_prefetch_hit 10697281
Core_0_L1D_prefetch_miss 3065552
Core_0_L1D_writebacks 0
Core_0_L1D_writeback_hit 0
Core_0_L1D_writeback_miss 0
Core_0_L1D_prefetch_requested 43550504
Core_0_L1D_prefetch_issued 43040057
Core_0_L1D_prefetch_useful 3056086
Core_0_L1D_prefetch_useless 3674994
Core_0_L1D_prefetch_late 579734
Core_0_L1D_average_miss_latency 14816132.43389

Core_0_L1I_total_access 20904799
Core_0_L1I_total_hit 20904167
Core_0_L1I_total_miss 632
Core_0_L1I_loads 20904799
Core_0_L1I_load_hit 20904167
Core_0_L1I_load_miss 632
Core_0_L1I_RFOs 0
Core_0_L1I_RFO_hit 0
Core_0_L1I_RFO_miss 0
Core_0_L1I_prefetches 0
Core_0_L1I_prefetch_hit 0
Core_0_L1I_prefetch_miss 0
Core_0_L1I_writebacks 0
Core_0_L1I_writeback_hit 0
Core_0_L1I_writeback_miss 0
Core_0_L1I_prefetch_requested 0
Core_0_L1I_prefetch_issued 0
Core_0_L1I_prefetch_useful 0
Core_0_L1I_prefetch_useless 0
Core_0_L1I_prefetch_late 0
Core_0_L1I_average_miss_latency 269.88449

Core_0_L2C_total_access 9724736
Core_0_L2C_total_hit 4962555
Core_0_L2C_total_miss 4762181
Core_0_L2C_loads 2882059
Core_0_L2C_load_hit 1228105
Core_0_L2C_load_miss 1653954
Core_0_L2C_RFOs 835808
Core_0_L2C_RFO_hit 146949
Core_0_L2C_RFO_miss 688859
Core_0_L2C_prefetches 3532377
Core_0_L2C_prefetch_hit 1113185
Core_0_L2C_prefetch_miss 2419192
Core_0_L2C_writebacks 2474492
Core_0_L2C_writeback_hit 2474316
Core_0_L2C_writeback_miss 176
Core_0_L2C_prefetch_requested 0
Core_0_L2C_prefetch_issued 0
Core_0_L2C_prefetch_useful 578353
Core_0_L2C_prefetch_useless 4552722
Core_0_L2C_prefetch_late 0
Core_0_L2C_average_miss_latency 162.84540

Core_0_LLC_total_access 6386417
Core_0_LLC_total_hit 2994459
Core_0_LLC_total_miss 3391958
Core_0_LLC_loads 1653935
Core_0_LLC_load_hit 584350
Core_0_LLC_load_miss 1069585
Core_0_LLC_RFOs 688858
Core_0_LLC_RFO_hit 234298
Core_0_LLC_RFO_miss 454560
Core_0_LLC_prefetches 2419185
Core_0_LLC_prefetch_hit 1003831
Core_0_LLC_prefetch_miss 1415354
Core_0_LLC_writebacks 1624439
Core_0_LLC_writeback_hit 1171980
Core_0_LLC_writeback_miss 452459
Core_0_LLC_prefetch_requested 0
Core_0_LLC_prefetch_issued 0
Core_0_LLC_prefetch_useful 86024
Core_0_LLC_prefetch_useless 3001732
Core_0_LLC_prefetch_late 0
Core_0_LLC_average_miss_latency 184.68736

Core_0_major_page_fault 0
Core_0_minor_page_fault 12935

CPU 0 L1D next line prefetcher final stats
Channel_0_RQ_row_buffer_hit 882079
Channel_0_RQ_row_buffer_miss 2056436
Channel_0_WQ_row_buffer_hit 326156
Channel_0_WQ_row_buffer_miss 424966
Channel_0_WQ_full 1963
Channel_0_dbus_congested 1707309

avg_congested_cycle 10
