*************************************************
   ChampSim Multicore Out-of-Order Simulator
   Last compiled: Dec 24 2023 15:55:26
*************************************************

trace_0 ./test_trace/450.soplex-247B.champsimtrace.xz
CPU 0 L1D next line prefetcher
CPU 0 L2C next line prefetcher
Initialize SRRIP state
LLC Next Line Prefetcher
warmup_instructions 100000000
simulation_instructions 100000000
champsim_seed 223

num_cpus 1
cpu_freq 4000
dram_io_freq 2400
page_size 4096
block_size 64
max_read_per_cycle 8
max_fill_per_cycle 1
dram_channels 1
dram_ranks 1
dram_banks 8
dram_rows 65536
dram_columns 128
dram_row_size 8
dram_size 4096
dram_pages 1048576

fetch_width 6
decode_width 6
exec_width 4
lq_width 2
sq_width 2
retire_width 4
scheduler_size 128
branch_mispredict_penalty 20
rob_size 256
lq_size 72
sq_size 56
num_instr_destinations_sparc 4
num_instr_destinations 2
num_instr_sources 4

itlb_set 16
itlb_way 8
itlb_rq_size 16
itlb_wq_size 16
itlb_pq_size 0
itlb_mshr_size 8
itlb_latency 1

dtlb_set 16
dtlb_way 4
dtlb_rq_size 16
dtlb_wq_size 16
dtlb_pq_size 0
dtlb_mshr_size 8
dtlb_latency 1

stlb_set 128
stlb_way 12
stlb_rq_size 32
stlb_wq_size 32
stlb_pq_size 0
stlb_mshr_size 16
stlb_latency 8

l1i_size 32
l1i_set 64
l1i_way 8
l1i_rq_size 64
l1i_wq_size 64
l1i_pq_size 8
l1i_mshr_size 8
l1i_latency 1

l1d_size 32
l1d_set 64
l1d_way 8
l1d_rq_size 64
l1d_wq_size 64
l1d_pq_size 8
l1d_mshr_size 16
l1d_latency 4

l2c_size 512
l2c_set 1024
l2c_way 8
l2c_rq_size 32
l2c_wq_size 32
l2c_pq_size 16
l2c_mshr_size 32
l2c_latency 10

llc_size 2048
llc_set 2048
llc_way 16
llc_rq_size 32
llc_wq_size 32
llc_pq_size 32
llc_mshr_size 64
llc_latency 20

dram_channel_width 8
dram_wq_size 64
dram_rq_size 64
tRP 15
tRCD 15
tCAS 12.5
dram_dbus_turn_around_time 30
dram_write_high_wm 56
dram_write_low_wm 48
min_dram_writes_per_switch 16
dram_mtps 2400
dram_dbus_return_time 13


Heartbeat CPU  0 instructions:    1000002 cycles:     751955 heartbeat IPC: 1.32987 cumulative IPC: 1.32987 (Simulation time: 0 hr 0 min 1 sec) 
Heartbeat CPU  0 instructions:    2000001 cycles:    1390530 heartbeat IPC: 1.56599 cumulative IPC: 1.43830 (Simulation time: 0 hr 0 min 2 sec) 
Heartbeat CPU  0 instructions:    3000001 cycles:    2115123 heartbeat IPC: 1.38009 cumulative IPC: 1.41836 (Simulation time: 0 hr 0 min 3 sec) 
Heartbeat CPU  0 instructions:    4000000 cycles:    2656126 heartbeat IPC: 1.84842 cumulative IPC: 1.50595 (Simulation time: 0 hr 0 min 5 sec) 
Heartbeat CPU  0 instructions:    5000000 cycles:    3561469 heartbeat IPC: 1.10455 cumulative IPC: 1.40392 (Simulation time: 0 hr 0 min 6 sec) 
Heartbeat CPU  0 instructions:    6000001 cycles:    4449397 heartbeat IPC: 1.12622 cumulative IPC: 1.34850 (Simulation time: 0 hr 0 min 7 sec) 
Heartbeat CPU  0 instructions:    7000000 cycles:    5246827 heartbeat IPC: 1.25403 cumulative IPC: 1.33414 (Simulation time: 0 hr 0 min 8 sec) 
Heartbeat CPU  0 instructions:    8000000 cycles:    5936879 heartbeat IPC: 1.44917 cumulative IPC: 1.34751 (Simulation time: 0 hr 0 min 9 sec) 
Heartbeat CPU  0 instructions:    9000001 cycles:    6554142 heartbeat IPC: 1.62006 cumulative IPC: 1.37318 (Simulation time: 0 hr 0 min 11 sec) 
Heartbeat CPU  0 instructions:   10000000 cycles:    7100429 heartbeat IPC: 1.83054 cumulative IPC: 1.40837 (Simulation time: 0 hr 0 min 12 sec) 
Heartbeat CPU  0 instructions:   11000001 cycles:    7687170 heartbeat IPC: 1.70433 cumulative IPC: 1.43096 (Simulation time: 0 hr 0 min 13 sec) 
Heartbeat CPU  0 instructions:   12000000 cycles:    8356014 heartbeat IPC: 1.49512 cumulative IPC: 1.43609 (Simulation time: 0 hr 0 min 14 sec) 
Heartbeat CPU  0 instructions:   13000000 cycles:    9233707 heartbeat IPC: 1.13935 cumulative IPC: 1.40789 (Simulation time: 0 hr 0 min 15 sec) 
Heartbeat CPU  0 instructions:   14000002 cycles:    9979532 heartbeat IPC: 1.34080 cumulative IPC: 1.40287 (Simulation time: 0 hr 0 min 16 sec) 
Heartbeat CPU  0 instructions:   15000002 cycles:   10565073 heartbeat IPC: 1.70782 cumulative IPC: 1.41977 (Simulation time: 0 hr 0 min 17 sec) 
Heartbeat CPU  0 instructions:   16000000 cycles:   11084956 heartbeat IPC: 1.92351 cumulative IPC: 1.44340 (Simulation time: 0 hr 0 min 18 sec) 
Heartbeat CPU  0 instructions:   17000000 cycles:   11892076 heartbeat IPC: 1.23897 cumulative IPC: 1.42952 (Simulation time: 0 hr 0 min 19 sec) 
Heartbeat CPU  0 instructions:   18000001 cycles:   12480069 heartbeat IPC: 1.70070 cumulative IPC: 1.44230 (Simulation time: 0 hr 0 min 20 sec) 
Heartbeat CPU  0 instructions:   19000001 cycles:   13020314 heartbeat IPC: 1.85101 cumulative IPC: 1.45926 (Simulation time: 0 hr 0 min 21 sec) 
Heartbeat CPU  0 instructions:   20000000 cycles:   13611740 heartbeat IPC: 1.69083 cumulative IPC: 1.46932 (Simulation time: 0 hr 0 min 23 sec) 
Heartbeat CPU  0 instructions:   21000001 cycles:   14261654 heartbeat IPC: 1.53867 cumulative IPC: 1.47248 (Simulation time: 0 hr 0 min 24 sec) 
Heartbeat CPU  0 instructions:   22000003 cycles:   15137379 heartbeat IPC: 1.14191 cumulative IPC: 1.45336 (Simulation time: 0 hr 0 min 24 sec) 
Heartbeat CPU  0 instructions:   23000001 cycles:   15901683 heartbeat IPC: 1.30838 cumulative IPC: 1.44639 (Simulation time: 0 hr 0 min 25 sec) 
Heartbeat CPU  0 instructions:   24000000 cycles:   16485670 heartbeat IPC: 1.71237 cumulative IPC: 1.45581 (Simulation time: 0 hr 0 min 26 sec) 
Heartbeat CPU  0 instructions:   25000000 cycles:   17018645 heartbeat IPC: 1.87626 cumulative IPC: 1.46898 (Simulation time: 0 hr 0 min 27 sec) 
Heartbeat CPU  0 instructions:   26000001 cycles:   17815868 heartbeat IPC: 1.25436 cumulative IPC: 1.45937 (Simulation time: 0 hr 0 min 28 sec) 
Heartbeat CPU  0 instructions:   27000003 cycles:   18369533 heartbeat IPC: 1.80615 cumulative IPC: 1.46983 (Simulation time: 0 hr 0 min 30 sec) 
Heartbeat CPU  0 instructions:   28000000 cycles:   18927705 heartbeat IPC: 1.79156 cumulative IPC: 1.47931 (Simulation time: 0 hr 0 min 31 sec) 
Heartbeat CPU  0 instructions:   29000002 cycles:   19481351 heartbeat IPC: 1.80621 cumulative IPC: 1.48860 (Simulation time: 0 hr 0 min 32 sec) 
Heartbeat CPU  0 instructions:   30000001 cycles:   20059134 heartbeat IPC: 1.73075 cumulative IPC: 1.49558 (Simulation time: 0 hr 0 min 33 sec) 
Heartbeat CPU  0 instructions:   31000002 cycles:   20924100 heartbeat IPC: 1.15612 cumulative IPC: 1.48155 (Simulation time: 0 hr 0 min 34 sec) 
Heartbeat CPU  0 instructions:   32000000 cycles:   21742122 heartbeat IPC: 1.22246 cumulative IPC: 1.47180 (Simulation time: 0 hr 0 min 35 sec) 
Heartbeat CPU  0 instructions:   33000000 cycles:   22333119 heartbeat IPC: 1.69206 cumulative IPC: 1.47763 (Simulation time: 0 hr 0 min 36 sec) 
Heartbeat CPU  0 instructions:   34000000 cycles:   22933518 heartbeat IPC: 1.66556 cumulative IPC: 1.48255 (Simulation time: 0 hr 0 min 37 sec) 
Heartbeat CPU  0 instructions:   35000000 cycles:   23657295 heartbeat IPC: 1.38164 cumulative IPC: 1.47946 (Simulation time: 0 hr 0 min 38 sec) 
Heartbeat CPU  0 instructions:   36000000 cycles:   24239887 heartbeat IPC: 1.71647 cumulative IPC: 1.48516 (Simulation time: 0 hr 0 min 39 sec) 
Heartbeat CPU  0 instructions:   37000002 cycles:   24781921 heartbeat IPC: 1.84491 cumulative IPC: 1.49302 (Simulation time: 0 hr 0 min 40 sec) 
Heartbeat CPU  0 instructions:   38000002 cycles:   25347732 heartbeat IPC: 1.76737 cumulative IPC: 1.49915 (Simulation time: 0 hr 0 min 41 sec) 
Heartbeat CPU  0 instructions:   39000000 cycles:   25920112 heartbeat IPC: 1.74709 cumulative IPC: 1.50462 (Simulation time: 0 hr 0 min 43 sec) 
Heartbeat CPU  0 instructions:   40000000 cycles:   26689214 heartbeat IPC: 1.30022 cumulative IPC: 1.49873 (Simulation time: 0 hr 0 min 43 sec) 
Heartbeat CPU  0 instructions:   41000001 cycles:   27551970 heartbeat IPC: 1.15908 cumulative IPC: 1.48810 (Simulation time: 0 hr 0 min 44 sec) 
Heartbeat CPU  0 instructions:   42000001 cycles:   28200932 heartbeat IPC: 1.54092 cumulative IPC: 1.48931 (Simulation time: 0 hr 0 min 45 sec) 
Heartbeat CPU  0 instructions:   43000000 cycles:   28817348 heartbeat IPC: 1.62228 cumulative IPC: 1.49216 (Simulation time: 0 hr 0 min 46 sec) 
Heartbeat CPU  0 instructions:   44000000 cycles:   29441851 heartbeat IPC: 1.60127 cumulative IPC: 1.49447 (Simulation time: 0 hr 0 min 47 sec) 
Heartbeat CPU  0 instructions:   45000000 cycles:   30154794 heartbeat IPC: 1.40264 cumulative IPC: 1.49230 (Simulation time: 0 hr 0 min 49 sec) 
Heartbeat CPU  0 instructions:   46000001 cycles:   30690884 heartbeat IPC: 1.86536 cumulative IPC: 1.49882 (Simulation time: 0 hr 0 min 50 sec) 
Heartbeat CPU  0 instructions:   47000000 cycles:   31250333 heartbeat IPC: 1.78747 cumulative IPC: 1.50398 (Simulation time: 0 hr 0 min 51 sec) 
Heartbeat CPU  0 instructions:   48000000 cycles:   31829065 heartbeat IPC: 1.72792 cumulative IPC: 1.50806 (Simulation time: 0 hr 0 min 52 sec) 
Heartbeat CPU  0 instructions:   49000001 cycles:   32562159 heartbeat IPC: 1.36408 cumulative IPC: 1.50481 (Simulation time: 0 hr 0 min 53 sec) 
Heartbeat CPU  0 instructions:   50000001 cycles:   33427319 heartbeat IPC: 1.15586 cumulative IPC: 1.49578 (Simulation time: 0 hr 0 min 54 sec) 
Heartbeat CPU  0 instructions:   51000003 cycles:   34119305 heartbeat IPC: 1.44512 cumulative IPC: 1.49476 (Simulation time: 0 hr 0 min 55 sec) 
Heartbeat CPU  0 instructions:   52000000 cycles:   34704754 heartbeat IPC: 1.70809 cumulative IPC: 1.49835 (Simulation time: 0 hr 0 min 56 sec) 
Heartbeat CPU  0 instructions:   53000000 cycles:   35280039 heartbeat IPC: 1.73827 cumulative IPC: 1.50227 (Simulation time: 0 hr 0 min 57 sec) 
Heartbeat CPU  0 instructions:   54000002 cycles:   36034016 heartbeat IPC: 1.32630 cumulative IPC: 1.49858 (Simulation time: 0 hr 0 min 58 sec) 
Heartbeat CPU  0 instructions:   55000001 cycles:   36598970 heartbeat IPC: 1.77005 cumulative IPC: 1.50277 (Simulation time: 0 hr 0 min 59 sec) 
Heartbeat CPU  0 instructions:   56000000 cycles:   37151956 heartbeat IPC: 1.80836 cumulative IPC: 1.50732 (Simulation time: 0 hr 1 min 0 sec) 
Heartbeat CPU  0 instructions:   57000002 cycles:   37732778 heartbeat IPC: 1.72170 cumulative IPC: 1.51062 (Simulation time: 0 hr 1 min 2 sec) 
Heartbeat CPU  0 instructions:   58000001 cycles:   38458984 heartbeat IPC: 1.37702 cumulative IPC: 1.50810 (Simulation time: 0 hr 1 min 3 sec) 
Heartbeat CPU  0 instructions:   59000001 cycles:   39326290 heartbeat IPC: 1.15300 cumulative IPC: 1.50027 (Simulation time: 0 hr 1 min 3 sec) 
Heartbeat CPU  0 instructions:   60000000 cycles:   40043430 heartbeat IPC: 1.39443 cumulative IPC: 1.49837 (Simulation time: 0 hr 1 min 4 sec) 
Heartbeat CPU  0 instructions:   61000003 cycles:   40637672 heartbeat IPC: 1.68282 cumulative IPC: 1.50107 (Simulation time: 0 hr 1 min 5 sec) 
Heartbeat CPU  0 instructions:   62000001 cycles:   41200428 heartbeat IPC: 1.77697 cumulative IPC: 1.50484 (Simulation time: 0 hr 1 min 6 sec) 
Heartbeat CPU  0 instructions:   63000000 cycles:   41984786 heartbeat IPC: 1.27493 cumulative IPC: 1.50054 (Simulation time: 0 hr 1 min 8 sec) 
Heartbeat CPU  0 instructions:   64000000 cycles:   42560737 heartbeat IPC: 1.73626 cumulative IPC: 1.50373 (Simulation time: 0 hr 1 min 9 sec) 
Heartbeat CPU  0 instructions:   65000003 cycles:   43111919 heartbeat IPC: 1.81429 cumulative IPC: 1.50770 (Simulation time: 0 hr 1 min 10 sec) 
Heartbeat CPU  0 instructions:   66000003 cycles:   43694415 heartbeat IPC: 1.71675 cumulative IPC: 1.51049 (Simulation time: 0 hr 1 min 11 sec) 
Heartbeat CPU  0 instructions:   67000000 cycles:   44374622 heartbeat IPC: 1.47014 cumulative IPC: 1.50987 (Simulation time: 0 hr 1 min 12 sec) 
Heartbeat CPU  0 instructions:   68000000 cycles:   45247395 heartbeat IPC: 1.14577 cumulative IPC: 1.50285 (Simulation time: 0 hr 1 min 13 sec) 
Heartbeat CPU  0 instructions:   69000001 cycles:   45996611 heartbeat IPC: 1.33473 cumulative IPC: 1.50011 (Simulation time: 0 hr 1 min 14 sec) 
Heartbeat CPU  0 instructions:   70000000 cycles:   46594085 heartbeat IPC: 1.67371 cumulative IPC: 1.50234 (Simulation time: 0 hr 1 min 15 sec) 
Heartbeat CPU  0 instructions:   71000002 cycles:   47117451 heartbeat IPC: 1.91071 cumulative IPC: 1.50687 (Simulation time: 0 hr 1 min 16 sec) 
Heartbeat CPU  0 instructions:   72000000 cycles:   47920019 heartbeat IPC: 1.24600 cumulative IPC: 1.50250 (Simulation time: 0 hr 1 min 17 sec) 
Heartbeat CPU  0 instructions:   73000001 cycles:   48496842 heartbeat IPC: 1.73364 cumulative IPC: 1.50525 (Simulation time: 0 hr 1 min 18 sec) 
Heartbeat CPU  0 instructions:   74000002 cycles:   49042344 heartbeat IPC: 1.83318 cumulative IPC: 1.50890 (Simulation time: 0 hr 1 min 19 sec) 
Heartbeat CPU  0 instructions:   75000003 cycles:   49634521 heartbeat IPC: 1.68869 cumulative IPC: 1.51105 (Simulation time: 0 hr 1 min 21 sec) 
Heartbeat CPU  0 instructions:   76000000 cycles:   50279270 heartbeat IPC: 1.55099 cumulative IPC: 1.51156 (Simulation time: 0 hr 1 min 22 sec) 
Heartbeat CPU  0 instructions:   77000001 cycles:   51149304 heartbeat IPC: 1.14938 cumulative IPC: 1.50540 (Simulation time: 0 hr 1 min 22 sec) 
Heartbeat CPU  0 instructions:   78000001 cycles:   51920450 heartbeat IPC: 1.29677 cumulative IPC: 1.50230 (Simulation time: 0 hr 1 min 23 sec) 
Heartbeat CPU  0 instructions:   79000003 cycles:   52520012 heartbeat IPC: 1.66789 cumulative IPC: 1.50419 (Simulation time: 0 hr 1 min 24 sec) 
Heartbeat CPU  0 instructions:   80000000 cycles:   53073060 heartbeat IPC: 1.80816 cumulative IPC: 1.50736 (Simulation time: 0 hr 1 min 25 sec) 
Heartbeat CPU  0 instructions:   81000001 cycles:   53859799 heartbeat IPC: 1.27107 cumulative IPC: 1.50390 (Simulation time: 0 hr 1 min 26 sec) 
Heartbeat CPU  0 instructions:   82000002 cycles:   54449088 heartbeat IPC: 1.69696 cumulative IPC: 1.50599 (Simulation time: 0 hr 1 min 28 sec) 
Heartbeat CPU  0 instructions:   83000003 cycles:   55011473 heartbeat IPC: 1.77814 cumulative IPC: 1.50878 (Simulation time: 0 hr 1 min 29 sec) 
Heartbeat CPU  0 instructions:   84000000 cycles:   55563214 heartbeat IPC: 1.81244 cumulative IPC: 1.51179 (Simulation time: 0 hr 1 min 30 sec) 
Heartbeat CPU  0 instructions:   85000001 cycles:   56140373 heartbeat IPC: 1.73263 cumulative IPC: 1.51406 (Simulation time: 0 hr 1 min 31 sec) 
Heartbeat CPU  0 instructions:   86000000 cycles:   57008696 heartbeat IPC: 1.15164 cumulative IPC: 1.50854 (Simulation time: 0 hr 1 min 32 sec) 
Heartbeat CPU  0 instructions:   87000000 cycles:   57832766 heartbeat IPC: 1.21349 cumulative IPC: 1.50434 (Simulation time: 0 hr 1 min 33 sec) 
Heartbeat CPU  0 instructions:   88000000 cycles:   58443924 heartbeat IPC: 1.63624 cumulative IPC: 1.50572 (Simulation time: 0 hr 1 min 34 sec) 
Heartbeat CPU  0 instructions:   89000003 cycles:   59063303 heartbeat IPC: 1.61453 cumulative IPC: 1.50686 (Simulation time: 0 hr 1 min 35 sec) 
Heartbeat CPU  0 instructions:   90000003 cycles:   59756868 heartbeat IPC: 1.44183 cumulative IPC: 1.50610 (Simulation time: 0 hr 1 min 36 sec) 
Heartbeat CPU  0 instructions:   91000001 cycles:   60407623 heartbeat IPC: 1.53667 cumulative IPC: 1.50643 (Simulation time: 0 hr 1 min 37 sec) 
Heartbeat CPU  0 instructions:   92000000 cycles:   60981889 heartbeat IPC: 1.74135 cumulative IPC: 1.50864 (Simulation time: 0 hr 1 min 38 sec) 
Heartbeat CPU  0 instructions:   93000002 cycles:   61526080 heartbeat IPC: 1.83759 cumulative IPC: 1.51155 (Simulation time: 0 hr 1 min 40 sec) 
Heartbeat CPU  0 instructions:   94000002 cycles:   62104926 heartbeat IPC: 1.72758 cumulative IPC: 1.51357 (Simulation time: 0 hr 1 min 41 sec) 
Heartbeat CPU  0 instructions:   95000003 cycles:   62936531 heartbeat IPC: 1.20250 cumulative IPC: 1.50946 (Simulation time: 0 hr 1 min 42 sec) 
Heartbeat CPU  0 instructions:   96000000 cycles:   63781273 heartbeat IPC: 1.18379 cumulative IPC: 1.50514 (Simulation time: 0 hr 1 min 42 sec) 
Heartbeat CPU  0 instructions:   97000002 cycles:   64411597 heartbeat IPC: 1.58649 cumulative IPC: 1.50594 (Simulation time: 0 hr 1 min 43 sec) 
Heartbeat CPU  0 instructions:   98000003 cycles:   65035322 heartbeat IPC: 1.60327 cumulative IPC: 1.50687 (Simulation time: 0 hr 1 min 44 sec) 
Heartbeat CPU  0 instructions:   99000002 cycles:   65686885 heartbeat IPC: 1.53477 cumulative IPC: 1.50715 (Simulation time: 0 hr 1 min 45 sec) 
Heartbeat CPU  0 instructions:  100000000 cycles:   66271331 heartbeat IPC: 1.71102 cumulative IPC: 1.50895 (Simulation time: 0 hr 1 min 47 sec) 

Warmup complete CPU  0 instructions:  100000002 cycles:   66271333 (Simulation time: 0 hr 1 min 47 sec) 

Heartbeat CPU  0 instructions:  101000000 cycles:   72866104 heartbeat IPC: 0.15164 cumulative IPC: 0.15163 (Simulation time: 0 hr 1 min 49 sec) 
Heartbeat CPU  0 instructions:  102000001 cycles:   76202024 heartbeat IPC: 0.29977 cumulative IPC: 0.20140 (Simulation time: 0 hr 1 min 52 sec) 
Heartbeat CPU  0 instructions:  103000001 cycles:   80653272 heartbeat IPC: 0.22466 cumulative IPC: 0.20859 (Simulation time: 0 hr 1 min 54 sec) 
Heartbeat CPU  0 instructions:  104000000 cycles:   85213933 heartbeat IPC: 0.21927 cumulative IPC: 0.21116 (Simulation time: 0 hr 1 min 57 sec) 
Heartbeat CPU  0 instructions:  105000003 cycles:   88416750 heartbeat IPC: 0.31223 cumulative IPC: 0.22578 (Simulation time: 0 hr 2 min 0 sec) 
Heartbeat CPU  0 instructions:  106000001 cycles:   91233523 heartbeat IPC: 0.35502 cumulative IPC: 0.24036 (Simulation time: 0 hr 2 min 2 sec) 
Heartbeat CPU  0 instructions:  107000003 cycles:   94879007 heartbeat IPC: 0.27431 cumulative IPC: 0.24469 (Simulation time: 0 hr 2 min 4 sec) 
Heartbeat CPU  0 instructions:  108000000 cycles:   98196735 heartbeat IPC: 0.30141 cumulative IPC: 0.25058 (Simulation time: 0 hr 2 min 6 sec) 
Heartbeat CPU  0 instructions:  109000000 cycles:  101533624 heartbeat IPC: 0.29968 cumulative IPC: 0.25523 (Simulation time: 0 hr 2 min 8 sec) 
Heartbeat CPU  0 instructions:  110000001 cycles:  103630412 heartbeat IPC: 0.47692 cumulative IPC: 0.26767 (Simulation time: 0 hr 2 min 9 sec) 
Heartbeat CPU  0 instructions:  111000003 cycles:  106084062 heartbeat IPC: 0.40756 cumulative IPC: 0.27629 (Simulation time: 0 hr 2 min 11 sec) 
Heartbeat CPU  0 instructions:  112000000 cycles:  107920477 heartbeat IPC: 0.54454 cumulative IPC: 0.28812 (Simulation time: 0 hr 2 min 13 sec) 
Heartbeat CPU  0 instructions:  113000000 cycles:  109634403 heartbeat IPC: 0.58346 cumulative IPC: 0.29979 (Simulation time: 0 hr 2 min 15 sec) 
Heartbeat CPU  0 instructions:  114000000 cycles:  110952438 heartbeat IPC: 0.75871 cumulative IPC: 0.31333 (Simulation time: 0 hr 2 min 17 sec) 
Heartbeat CPU  0 instructions:  115000000 cycles:  112781969 heartbeat IPC: 0.54659 cumulative IPC: 0.32251 (Simulation time: 0 hr 2 min 18 sec) 
Heartbeat CPU  0 instructions:  116000000 cycles:  116437227 heartbeat IPC: 0.27358 cumulative IPC: 0.31894 (Simulation time: 0 hr 2 min 21 sec) 
Heartbeat CPU  0 instructions:  117000000 cycles:  119125866 heartbeat IPC: 0.37194 cumulative IPC: 0.32164 (Simulation time: 0 hr 2 min 23 sec) 
Heartbeat CPU  0 instructions:  118000002 cycles:  121724192 heartbeat IPC: 0.38486 cumulative IPC: 0.32460 (Simulation time: 0 hr 2 min 25 sec) 
Heartbeat CPU  0 instructions:  119000000 cycles:  124623983 heartbeat IPC: 0.34485 cumulative IPC: 0.32561 (Simulation time: 0 hr 2 min 27 sec) 
Heartbeat CPU  0 instructions:  120000000 cycles:  126898523 heartbeat IPC: 0.43965 cumulative IPC: 0.32988 (Simulation time: 0 hr 2 min 28 sec) 
Heartbeat CPU  0 instructions:  121000001 cycles:  130990476 heartbeat IPC: 0.24438 cumulative IPC: 0.32448 (Simulation time: 0 hr 2 min 31 sec) 
Heartbeat CPU  0 instructions:  122000001 cycles:  134311020 heartbeat IPC: 0.30116 cumulative IPC: 0.32334 (Simulation time: 0 hr 2 min 33 sec) 
Heartbeat CPU  0 instructions:  123000000 cycles:  135990553 heartbeat IPC: 0.59540 cumulative IPC: 0.32989 (Simulation time: 0 hr 2 min 34 sec) 
Heartbeat CPU  0 instructions:  124000000 cycles:  137372988 heartbeat IPC: 0.72336 cumulative IPC: 0.33754 (Simulation time: 0 hr 2 min 35 sec) 
Heartbeat CPU  0 instructions:  125000000 cycles:  140934228 heartbeat IPC: 0.28080 cumulative IPC: 0.33484 (Simulation time: 0 hr 2 min 37 sec) 
Heartbeat CPU  0 instructions:  126000002 cycles:  143345114 heartbeat IPC: 0.41479 cumulative IPC: 0.33734 (Simulation time: 0 hr 2 min 39 sec) 
Heartbeat CPU  0 instructions:  127000002 cycles:  146572567 heartbeat IPC: 0.30984 cumulative IPC: 0.33623 (Simulation time: 0 hr 2 min 41 sec) 
Heartbeat CPU  0 instructions:  128000000 cycles:  149871419 heartbeat IPC: 0.30314 cumulative IPC: 0.33493 (Simulation time: 0 hr 2 min 43 sec) 
Heartbeat CPU  0 instructions:  129000001 cycles:  152218560 heartbeat IPC: 0.42605 cumulative IPC: 0.33742 (Simulation time: 0 hr 2 min 45 sec) 
Heartbeat CPU  0 instructions:  130000000 cycles:  157039747 heartbeat IPC: 0.20742 cumulative IPC: 0.33051 (Simulation time: 0 hr 2 min 48 sec) 
Heartbeat CPU  0 instructions:  131000000 cycles:  158912363 heartbeat IPC: 0.53401 cumulative IPC: 0.33462 (Simulation time: 0 hr 2 min 49 sec) 
Heartbeat CPU  0 instructions:  132000000 cycles:  160495193 heartbeat IPC: 0.63178 cumulative IPC: 0.33962 (Simulation time: 0 hr 2 min 51 sec) 
Heartbeat CPU  0 instructions:  133000000 cycles:  162505760 heartbeat IPC: 0.49737 cumulative IPC: 0.34291 (Simulation time: 0 hr 2 min 52 sec) 
Heartbeat CPU  0 instructions:  134000000 cycles:  165918329 heartbeat IPC: 0.29303 cumulative IPC: 0.34120 (Simulation time: 0 hr 2 min 54 sec) 
Heartbeat CPU  0 instructions:  135000002 cycles:  169059365 heartbeat IPC: 0.31837 cumulative IPC: 0.34051 (Simulation time: 0 hr 2 min 56 sec) 
Heartbeat CPU  0 instructions:  136000000 cycles:  171084576 heartbeat IPC: 0.49377 cumulative IPC: 0.34347 (Simulation time: 0 hr 2 min 58 sec) 
Heartbeat CPU  0 instructions:  137000000 cycles:  174488611 heartbeat IPC: 0.29377 cumulative IPC: 0.34190 (Simulation time: 0 hr 3 min 0 sec) 
Heartbeat CPU  0 instructions:  138000003 cycles:  177420955 heartbeat IPC: 0.34103 cumulative IPC: 0.34188 (Simulation time: 0 hr 3 min 2 sec) 
Heartbeat CPU  0 instructions:  139000000 cycles:  181645839 heartbeat IPC: 0.23669 cumulative IPC: 0.33803 (Simulation time: 0 hr 3 min 5 sec) 
Heartbeat CPU  0 instructions:  140000000 cycles:  183347457 heartbeat IPC: 0.58768 cumulative IPC: 0.34166 (Simulation time: 0 hr 3 min 6 sec) 
Heartbeat CPU  0 instructions:  141000000 cycles:  184844415 heartbeat IPC: 0.66802 cumulative IPC: 0.34578 (Simulation time: 0 hr 3 min 7 sec) 
Heartbeat CPU  0 instructions:  142000000 cycles:  187568798 heartbeat IPC: 0.36706 cumulative IPC: 0.34626 (Simulation time: 0 hr 3 min 9 sec) 
Heartbeat CPU  0 instructions:  143000000 cycles:  190210140 heartbeat IPC: 0.37860 cumulative IPC: 0.34695 (Simulation time: 0 hr 3 min 11 sec) 
Heartbeat CPU  0 instructions:  144000000 cycles:  193736372 heartbeat IPC: 0.28359 cumulative IPC: 0.34519 (Simulation time: 0 hr 3 min 13 sec) 
Heartbeat CPU  0 instructions:  145000002 cycles:  196133853 heartbeat IPC: 0.41711 cumulative IPC: 0.34652 (Simulation time: 0 hr 3 min 15 sec) 
Heartbeat CPU  0 instructions:  146000003 cycles:  198789380 heartbeat IPC: 0.37657 cumulative IPC: 0.34712 (Simulation time: 0 hr 3 min 17 sec) 
Heartbeat CPU  0 instructions:  147000002 cycles:  202574016 heartbeat IPC: 0.26423 cumulative IPC: 0.34482 (Simulation time: 0 hr 3 min 19 sec) 
Heartbeat CPU  0 instructions:  148000000 cycles:  206104447 heartbeat IPC: 0.28325 cumulative IPC: 0.34327 (Simulation time: 0 hr 3 min 21 sec) 
Heartbeat CPU  0 instructions:  149000000 cycles:  207800172 heartbeat IPC: 0.58972 cumulative IPC: 0.34622 (Simulation time: 0 hr 3 min 22 sec) 
Heartbeat CPU  0 instructions:  150000002 cycles:  209218507 heartbeat IPC: 0.70505 cumulative IPC: 0.34978 (Simulation time: 0 hr 3 min 23 sec) 
Heartbeat CPU  0 instructions:  151000000 cycles:  212467761 heartbeat IPC: 0.30776 cumulative IPC: 0.34885 (Simulation time: 0 hr 3 min 25 sec) 
Heartbeat CPU  0 instructions:  152000000 cycles:  214847686 heartbeat IPC: 0.42018 cumulative IPC: 0.34999 (Simulation time: 0 hr 3 min 27 sec) 
Heartbeat CPU  0 instructions:  153000000 cycles:  217962393 heartbeat IPC: 0.32106 cumulative IPC: 0.34939 (Simulation time: 0 hr 3 min 29 sec) 
Heartbeat CPU  0 instructions:  154000002 cycles:  221264918 heartbeat IPC: 0.30280 cumulative IPC: 0.34840 (Simulation time: 0 hr 3 min 31 sec) 
Heartbeat CPU  0 instructions:  155000002 cycles:  223107939 heartbeat IPC: 0.54259 cumulative IPC: 0.35068 (Simulation time: 0 hr 3 min 33 sec) 
Heartbeat CPU  0 instructions:  156000000 cycles:  227554880 heartbeat IPC: 0.22487 cumulative IPC: 0.34721 (Simulation time: 0 hr 3 min 36 sec) 
Heartbeat CPU  0 instructions:  157000000 cycles:  230556573 heartbeat IPC: 0.33315 cumulative IPC: 0.34696 (Simulation time: 0 hr 3 min 38 sec) 
Heartbeat CPU  0 instructions:  158000003 cycles:  232228540 heartbeat IPC: 0.59810 cumulative IPC: 0.34949 (Simulation time: 0 hr 3 min 39 sec) 
Heartbeat CPU  0 instructions:  159000000 cycles:  233565372 heartbeat IPC: 0.74803 cumulative IPC: 0.35267 (Simulation time: 0 hr 3 min 40 sec) 
Heartbeat CPU  0 instructions:  160000000 cycles:  237646072 heartbeat IPC: 0.24506 cumulative IPC: 0.35011 (Simulation time: 0 hr 3 min 42 sec) 
Heartbeat CPU  0 instructions:  161000003 cycles:  239901924 heartbeat IPC: 0.44329 cumulative IPC: 0.35132 (Simulation time: 0 hr 3 min 44 sec) 
Heartbeat CPU  0 instructions:  162000001 cycles:  242701050 heartbeat IPC: 0.35725 cumulative IPC: 0.35141 (Simulation time: 0 hr 3 min 46 sec) 
Heartbeat CPU  0 instructions:  163000000 cycles:  246051307 heartbeat IPC: 0.29848 cumulative IPC: 0.35043 (Simulation time: 0 hr 3 min 48 sec) 
Heartbeat CPU  0 instructions:  164000000 cycles:  248378985 heartbeat IPC: 0.42961 cumulative IPC: 0.35144 (Simulation time: 0 hr 3 min 50 sec) 
Heartbeat CPU  0 instructions:  165000001 cycles:  253165743 heartbeat IPC: 0.20891 cumulative IPC: 0.34779 (Simulation time: 0 hr 3 min 53 sec) 
Heartbeat CPU  0 instructions:  166000000 cycles:  255107491 heartbeat IPC: 0.51500 cumulative IPC: 0.34951 (Simulation time: 0 hr 3 min 54 sec) 
Heartbeat CPU  0 instructions:  167000001 cycles:  256698268 heartbeat IPC: 0.62862 cumulative IPC: 0.35184 (Simulation time: 0 hr 3 min 55 sec) 
Heartbeat CPU  0 instructions:  168000000 cycles:  258686288 heartbeat IPC: 0.50301 cumulative IPC: 0.35340 (Simulation time: 0 hr 3 min 56 sec) 
Heartbeat CPU  0 instructions:  169000001 cycles:  262106231 heartbeat IPC: 0.29240 cumulative IPC: 0.35234 (Simulation time: 0 hr 3 min 59 sec) 
Heartbeat CPU  0 instructions:  170000002 cycles:  265228149 heartbeat IPC: 0.32032 cumulative IPC: 0.35184 (Simulation time: 0 hr 4 min 1 sec) 
Heartbeat CPU  0 instructions:  171000000 cycles:  267252677 heartbeat IPC: 0.49394 cumulative IPC: 0.35327 (Simulation time: 0 hr 4 min 3 sec) 
Heartbeat CPU  0 instructions:  172000000 cycles:  270667758 heartbeat IPC: 0.29282 cumulative IPC: 0.35226 (Simulation time: 0 hr 4 min 4 sec) 
Heartbeat CPU  0 instructions:  173000000 cycles:  273565359 heartbeat IPC: 0.34511 cumulative IPC: 0.35216 (Simulation time: 0 hr 4 min 7 sec) 
Heartbeat CPU  0 instructions:  174000000 cycles:  277858397 heartbeat IPC: 0.23294 cumulative IPC: 0.34974 (Simulation time: 0 hr 4 min 9 sec) 
Heartbeat CPU  0 instructions:  175000000 cycles:  279558828 heartbeat IPC: 0.58809 cumulative IPC: 0.35164 (Simulation time: 0 hr 4 min 10 sec) 
Heartbeat CPU  0 instructions:  176000000 cycles:  281059761 heartbeat IPC: 0.66625 cumulative IPC: 0.35384 (Simulation time: 0 hr 4 min 11 sec) 
Heartbeat CPU  0 instructions:  177000002 cycles:  283722308 heartbeat IPC: 0.37558 cumulative IPC: 0.35410 (Simulation time: 0 hr 4 min 13 sec) 
Heartbeat CPU  0 instructions:  178000001 cycles:  286417705 heartbeat IPC: 0.37100 cumulative IPC: 0.35431 (Simulation time: 0 hr 4 min 15 sec) 
Heartbeat CPU  0 instructions:  179000001 cycles:  289952167 heartbeat IPC: 0.28293 cumulative IPC: 0.35318 (Simulation time: 0 hr 4 min 17 sec) 
Heartbeat CPU  0 instructions:  180000000 cycles:  293014629 heartbeat IPC: 0.32653 cumulative IPC: 0.35282 (Simulation time: 0 hr 4 min 19 sec) 
Heartbeat CPU  0 instructions:  181000003 cycles:  295049327 heartbeat IPC: 0.49147 cumulative IPC: 0.35406 (Simulation time: 0 hr 4 min 21 sec) 
Heartbeat CPU  0 instructions:  182000000 cycles:  299341371 heartbeat IPC: 0.23299 cumulative IPC: 0.35183 (Simulation time: 0 hr 4 min 24 sec) 
Heartbeat CPU  0 instructions:  183000000 cycles:  302468463 heartbeat IPC: 0.31979 cumulative IPC: 0.35140 (Simulation time: 0 hr 4 min 26 sec) 
Heartbeat CPU  0 instructions:  184000000 cycles:  304140125 heartbeat IPC: 0.59821 cumulative IPC: 0.35314 (Simulation time: 0 hr 4 min 27 sec) 
Heartbeat CPU  0 instructions:  185000002 cycles:  305480960 heartbeat IPC: 0.74581 cumulative IPC: 0.35534 (Simulation time: 0 hr 4 min 28 sec) 
Heartbeat CPU  0 instructions:  186000001 cycles:  309401872 heartbeat IPC: 0.25504 cumulative IPC: 0.35372 (Simulation time: 0 hr 4 min 30 sec) 
Heartbeat CPU  0 instructions:  187000000 cycles:  311727258 heartbeat IPC: 0.43004 cumulative IPC: 0.35444 (Simulation time: 0 hr 4 min 32 sec) 
Heartbeat CPU  0 instructions:  188000000 cycles:  314361667 heartbeat IPC: 0.37959 cumulative IPC: 0.35471 (Simulation time: 0 hr 4 min 34 sec) 
Heartbeat CPU  0 instructions:  189000001 cycles:  317726344 heartbeat IPC: 0.29721 cumulative IPC: 0.35394 (Simulation time: 0 hr 4 min 36 sec) 
Heartbeat CPU  0 instructions:  190000001 cycles:  319771822 heartbeat IPC: 0.48888 cumulative IPC: 0.35503 (Simulation time: 0 hr 4 min 38 sec) 
Heartbeat CPU  0 instructions:  191000003 cycles:  324467069 heartbeat IPC: 0.21298 cumulative IPC: 0.35245 (Simulation time: 0 hr 4 min 41 sec) 
Heartbeat CPU  0 instructions:  192000000 cycles:  326899330 heartbeat IPC: 0.41114 cumulative IPC: 0.35299 (Simulation time: 0 hr 4 min 42 sec) 
Heartbeat CPU  0 instructions:  193000003 cycles:  328529558 heartbeat IPC: 0.61341 cumulative IPC: 0.35461 (Simulation time: 0 hr 4 min 43 sec) 
Heartbeat CPU  0 instructions:  194000001 cycles:  330107491 heartbeat IPC: 0.63374 cumulative IPC: 0.35628 (Simulation time: 0 hr 4 min 44 sec) 
Heartbeat CPU  0 instructions:  195000001 cycles:  333963671 heartbeat IPC: 0.25932 cumulative IPC: 0.35489 (Simulation time: 0 hr 4 min 47 sec) 
Heartbeat CPU  0 instructions:  196000000 cycles:  336649130 heartbeat IPC: 0.37238 cumulative IPC: 0.35506 (Simulation time: 0 hr 4 min 49 sec) 
Heartbeat CPU  0 instructions:  197000000 cycles:  338925468 heartbeat IPC: 0.43930 cumulative IPC: 0.35576 (Simulation time: 0 hr 4 min 51 sec) 
Heartbeat CPU  0 instructions:  198000000 cycles:  342287065 heartbeat IPC: 0.29748 cumulative IPC: 0.35505 (Simulation time: 0 hr 4 min 52 sec) 
Heartbeat CPU  0 instructions:  199000000 cycles:  344762573 heartbeat IPC: 0.40396 cumulative IPC: 0.35549 (Simulation time: 0 hr 4 min 55 sec) 
Heartbeat CPU  0 instructions:  200000000 cycles:  349609231 heartbeat IPC: 0.20633 cumulative IPC: 0.35294 (Simulation time: 0 hr 4 min 58 sec) 
Finished CPU 0 instructions: 100000000 cycles: 283337911 cumulative IPC: 0.35294 (Simulation time: 0 hr 4 min 58 sec) 

ChampSim completed all CPUs

[ROI Statistics]
Core_0_instructions 100000000
Core_0_cycles 283337911
Core_0_IPC 0.35294

Core_0_branch_prediction_accuracy 95.09858
Core_0_branch_MPKI 8.66907
Core_0_average_ROB_occupancy_at_mispredict 82.07153

Core_0_L1D_total_access 35184020
Core_0_L1D_total_hit 27932524
Core_0_L1D_total_miss 7251496
Core_0_L1D_loads 15569013
Core_0_L1D_load_hit 12276508
Core_0_L1D_load_miss 3292505
Core_0_L1D_RFOs 5431612
Core_0_L1D_RFO_hit 4595617
Core_0_L1D_RFO_miss 835995
Core_0_L1D_prefetches 14183395
Core_0_L1D_prefetch_hit 11060399
Core_0_L1D_prefetch_miss 3122996
Core_0_L1D_writebacks 0
Core_0_L1D_writeback_hit 0
Core_0_L1D_writeback_miss 0
Core_0_L1D_prefetch_requested 43503527
Core_0_L1D_prefetch_issued 42991764
Core_0_L1D_prefetch_useful 3113389
Core_0_L1D_prefetch_useless 3674929
Core_0_L1D_prefetch_late 518954
Core_0_L1D_average_miss_latency 12707634.35751

Core_0_L1I_total_access 20894324
Core_0_L1I_total_hit 20893692
Core_0_L1I_total_miss 632
Core_0_L1I_loads 20894324
Core_0_L1I_load_hit 20893692
Core_0_L1I_load_miss 632
Core_0_L1I_RFOs 0
Core_0_L1I_RFO_hit 0
Core_0_L1I_RFO_miss 0
Core_0_L1I_prefetches 0
Core_0_L1I_prefetch_hit 0
Core_0_L1I_prefetch_miss 0
Core_0_L1I_writebacks 0
Core_0_L1I_writeback_hit 0
Core_0_L1I_writeback_miss 0
Core_0_L1I_prefetch_requested 0
Core_0_L1I_prefetch_issued 0
Core_0_L1I_prefetch_useful 0
Core_0_L1I_prefetch_useless 0
Core_0_L1I_prefetch_late 0
Core_0_L1I_average_miss_latency 201.37025

Core_0_L2C_total_access 13091084
Core_0_L2C_total_hit 7772173
Core_0_L2C_total_miss 5318911
Core_0_L2C_loads 2886783
Core_0_L2C_load_hit 1472914
Core_0_L2C_load_miss 1413869
Core_0_L2C_RFOs 835820
Core_0_L2C_RFO_hit 137990
Core_0_L2C_RFO_miss 697830
Core_0_L2C_prefetches 6893630
Core_0_L2C_prefetch_hit 3686538
Core_0_L2C_prefetch_miss 3207092
Core_0_L2C_writebacks 2474851
Core_0_L2C_writeback_hit 2474731
Core_0_L2C_writeback_miss 120
Core_0_L2C_prefetch_requested 11832173
Core_0_L2C_prefetch_issued 11645424
Core_0_L2C_prefetch_useful 1202181
Core_0_L2C_prefetch_useless 5407831
Core_0_L2C_prefetch_late 48767
Core_0_L2C_average_miss_latency 181.36911

Core_0_LLC_total_access 9087598
Core_0_LLC_total_hit 5126565
Core_0_LLC_total_miss 3961033
Core_0_LLC_loads 1371333
Core_0_LLC_load_hit 584320
Core_0_LLC_load_miss 787013
Core_0_LLC_RFOs 697809
Core_0_LLC_RFO_hit 147322
Core_0_LLC_RFO_miss 550487
Core_0_LLC_prefetches 5363329
Core_0_LLC_prefetch_hit 2859066
Core_0_LLC_prefetch_miss 2504263
Core_0_LLC_writebacks 1655127
Core_0_LLC_writeback_hit 1535857
Core_0_LLC_writeback_miss 119270
Core_0_LLC_prefetch_requested 8409172
Core_0_LLC_prefetch_issued 8276997
Core_0_LLC_prefetch_useful 576734
Core_0_LLC_prefetch_useless 4807020
Core_0_LLC_prefetch_late 19826
Core_0_LLC_average_miss_latency 275.72780

Core_0_major_page_fault 0
Core_0_minor_page_fault 12935

CPU 0 L1D next line prefetcher final stats
CPU 0 L2C next line prefetcher final stats
LLC Next Line Prefetcher Final Stats: none
Channel_0_RQ_row_buffer_hit 957777
Channel_0_RQ_row_buffer_miss 2882134
Channel_0_WQ_row_buffer_hit 296993
Channel_0_WQ_row_buffer_miss 760147
Channel_0_WQ_full 0
Channel_0_dbus_congested 2740096

avg_congested_cycle 10
