*************************************************
   ChampSim Multicore Out-of-Order Simulator
   Last compiled: Dec 24 2023 16:46:46
*************************************************

trace_0 ./test_trace/450.soplex-247B.champsimtrace.xz
LLC Next Line Prefetcher
warmup_instructions 100000000
simulation_instructions 100000000
champsim_seed 223

num_cpus 1
cpu_freq 4000
dram_io_freq 2400
page_size 4096
block_size 64
max_read_per_cycle 8
max_fill_per_cycle 1
dram_channels 1
dram_ranks 1
dram_banks 8
dram_rows 65536
dram_columns 128
dram_row_size 8
dram_size 4096
dram_pages 1048576

fetch_width 6
decode_width 6
exec_width 4
lq_width 2
sq_width 2
retire_width 4
scheduler_size 128
branch_mispredict_penalty 20
rob_size 256
lq_size 72
sq_size 56
num_instr_destinations_sparc 4
num_instr_destinations 2
num_instr_sources 4

itlb_set 16
itlb_way 8
itlb_rq_size 16
itlb_wq_size 16
itlb_pq_size 0
itlb_mshr_size 8
itlb_latency 1

dtlb_set 16
dtlb_way 4
dtlb_rq_size 16
dtlb_wq_size 16
dtlb_pq_size 0
dtlb_mshr_size 8
dtlb_latency 1

stlb_set 128
stlb_way 12
stlb_rq_size 32
stlb_wq_size 32
stlb_pq_size 0
stlb_mshr_size 16
stlb_latency 8

l1i_size 32
l1i_set 64
l1i_way 8
l1i_rq_size 64
l1i_wq_size 64
l1i_pq_size 8
l1i_mshr_size 8
l1i_latency 1

l1d_size 32
l1d_set 64
l1d_way 8
l1d_rq_size 64
l1d_wq_size 64
l1d_pq_size 8
l1d_mshr_size 16
l1d_latency 4

l2c_size 512
l2c_set 1024
l2c_way 8
l2c_rq_size 32
l2c_wq_size 32
l2c_pq_size 16
l2c_mshr_size 32
l2c_latency 10

llc_size 2048
llc_set 2048
llc_way 16
llc_rq_size 32
llc_wq_size 32
llc_pq_size 32
llc_mshr_size 64
llc_latency 20

dram_channel_width 8
dram_wq_size 64
dram_rq_size 64
tRP 15
tRCD 15
tCAS 12.5
dram_dbus_turn_around_time 30
dram_write_high_wm 56
dram_write_low_wm 48
min_dram_writes_per_switch 16
dram_mtps 2400
dram_dbus_return_time 13


Heartbeat CPU  0 instructions:    1000002 cycles:     757317 heartbeat IPC: 1.32045 cumulative IPC: 1.32045 (Simulation time: 0 hr 0 min 1 sec) 
Heartbeat CPU  0 instructions:    2000001 cycles:    1398876 heartbeat IPC: 1.55870 cumulative IPC: 1.42972 (Simulation time: 0 hr 0 min 3 sec) 
Heartbeat CPU  0 instructions:    3000001 cycles:    2123840 heartbeat IPC: 1.37938 cumulative IPC: 1.41254 (Simulation time: 0 hr 0 min 4 sec) 
Heartbeat CPU  0 instructions:    4000000 cycles:    2664863 heartbeat IPC: 1.84835 cumulative IPC: 1.50102 (Simulation time: 0 hr 0 min 5 sec) 
Heartbeat CPU  0 instructions:    5000000 cycles:    3570871 heartbeat IPC: 1.10374 cumulative IPC: 1.40022 (Simulation time: 0 hr 0 min 6 sec) 
Heartbeat CPU  0 instructions:    6000001 cycles:    4460983 heartbeat IPC: 1.12346 cumulative IPC: 1.34500 (Simulation time: 0 hr 0 min 7 sec) 
Heartbeat CPU  0 instructions:    7000000 cycles:    5258791 heartbeat IPC: 1.25343 cumulative IPC: 1.33110 (Simulation time: 0 hr 0 min 9 sec) 
Heartbeat CPU  0 instructions:    8000000 cycles:    5950286 heartbeat IPC: 1.44614 cumulative IPC: 1.34447 (Simulation time: 0 hr 0 min 10 sec) 
Heartbeat CPU  0 instructions:    9000001 cycles:    6565630 heartbeat IPC: 1.62511 cumulative IPC: 1.37077 (Simulation time: 0 hr 0 min 11 sec) 
Heartbeat CPU  0 instructions:   10000000 cycles:    7112403 heartbeat IPC: 1.82891 cumulative IPC: 1.40599 (Simulation time: 0 hr 0 min 12 sec) 
Heartbeat CPU  0 instructions:   11000001 cycles:    7707491 heartbeat IPC: 1.68043 cumulative IPC: 1.42718 (Simulation time: 0 hr 0 min 13 sec) 
Heartbeat CPU  0 instructions:   12000000 cycles:    8387354 heartbeat IPC: 1.47088 cumulative IPC: 1.43073 (Simulation time: 0 hr 0 min 14 sec) 
Heartbeat CPU  0 instructions:   13000000 cycles:    9270495 heartbeat IPC: 1.13232 cumulative IPC: 1.40230 (Simulation time: 0 hr 0 min 15 sec) 
Heartbeat CPU  0 instructions:   14000002 cycles:   10020647 heartbeat IPC: 1.33307 cumulative IPC: 1.39712 (Simulation time: 0 hr 0 min 16 sec) 
Heartbeat CPU  0 instructions:   15000002 cycles:   10627029 heartbeat IPC: 1.64913 cumulative IPC: 1.41150 (Simulation time: 0 hr 0 min 17 sec) 
Heartbeat CPU  0 instructions:   16000000 cycles:   11156125 heartbeat IPC: 1.89001 cumulative IPC: 1.43419 (Simulation time: 0 hr 0 min 18 sec) 
Heartbeat CPU  0 instructions:   17000000 cycles:   11966759 heartbeat IPC: 1.23360 cumulative IPC: 1.42060 (Simulation time: 0 hr 0 min 19 sec) 
Heartbeat CPU  0 instructions:   18000001 cycles:   12579599 heartbeat IPC: 1.63175 cumulative IPC: 1.43089 (Simulation time: 0 hr 0 min 20 sec) 
Heartbeat CPU  0 instructions:   19000001 cycles:   13120366 heartbeat IPC: 1.84923 cumulative IPC: 1.44813 (Simulation time: 0 hr 0 min 21 sec) 
Heartbeat CPU  0 instructions:   20000000 cycles:   13719831 heartbeat IPC: 1.66815 cumulative IPC: 1.45774 (Simulation time: 0 hr 0 min 22 sec) 
Heartbeat CPU  0 instructions:   21000001 cycles:   14381000 heartbeat IPC: 1.51247 cumulative IPC: 1.46026 (Simulation time: 0 hr 0 min 23 sec) 
Heartbeat CPU  0 instructions:   22000003 cycles:   15262026 heartbeat IPC: 1.13504 cumulative IPC: 1.44149 (Simulation time: 0 hr 0 min 24 sec) 
Heartbeat CPU  0 instructions:   23000001 cycles:   16030632 heartbeat IPC: 1.30105 cumulative IPC: 1.43475 (Simulation time: 0 hr 0 min 25 sec) 
Heartbeat CPU  0 instructions:   24000000 cycles:   16633645 heartbeat IPC: 1.65834 cumulative IPC: 1.44286 (Simulation time: 0 hr 0 min 26 sec) 
Heartbeat CPU  0 instructions:   25000000 cycles:   17177350 heartbeat IPC: 1.83923 cumulative IPC: 1.45540 (Simulation time: 0 hr 0 min 27 sec) 
Heartbeat CPU  0 instructions:   26000001 cycles:   17975662 heartbeat IPC: 1.25264 cumulative IPC: 1.44640 (Simulation time: 0 hr 0 min 28 sec) 
Heartbeat CPU  0 instructions:   27000003 cycles:   18556414 heartbeat IPC: 1.72191 cumulative IPC: 1.45502 (Simulation time: 0 hr 0 min 29 sec) 
Heartbeat CPU  0 instructions:   28000000 cycles:   19115387 heartbeat IPC: 1.78899 cumulative IPC: 1.46479 (Simulation time: 0 hr 0 min 30 sec) 
Heartbeat CPU  0 instructions:   29000002 cycles:   19672075 heartbeat IPC: 1.79634 cumulative IPC: 1.47417 (Simulation time: 0 hr 0 min 31 sec) 
Heartbeat CPU  0 instructions:   30000001 cycles:   20263264 heartbeat IPC: 1.69150 cumulative IPC: 1.48051 (Simulation time: 0 hr 0 min 32 sec) 
Heartbeat CPU  0 instructions:   31000002 cycles:   21134032 heartbeat IPC: 1.14841 cumulative IPC: 1.46683 (Simulation time: 0 hr 0 min 33 sec) 
Heartbeat CPU  0 instructions:   32000000 cycles:   21956882 heartbeat IPC: 1.21529 cumulative IPC: 1.45740 (Simulation time: 0 hr 0 min 34 sec) 
Heartbeat CPU  0 instructions:   33000000 cycles:   22557631 heartbeat IPC: 1.66459 cumulative IPC: 1.46292 (Simulation time: 0 hr 0 min 35 sec) 
Heartbeat CPU  0 instructions:   34000000 cycles:   23178539 heartbeat IPC: 1.61054 cumulative IPC: 1.46687 (Simulation time: 0 hr 0 min 36 sec) 
Heartbeat CPU  0 instructions:   35000002 cycles:   23902179 heartbeat IPC: 1.38191 cumulative IPC: 1.46430 (Simulation time: 0 hr 0 min 37 sec) 
Heartbeat CPU  0 instructions:   36000000 cycles:   24514041 heartbeat IPC: 1.63435 cumulative IPC: 1.46855 (Simulation time: 0 hr 0 min 38 sec) 
Heartbeat CPU  0 instructions:   37000002 cycles:   25055859 heartbeat IPC: 1.84564 cumulative IPC: 1.47670 (Simulation time: 0 hr 0 min 39 sec) 
Heartbeat CPU  0 instructions:   38000002 cycles:   25622447 heartbeat IPC: 1.76495 cumulative IPC: 1.48307 (Simulation time: 0 hr 0 min 40 sec) 
Heartbeat CPU  0 instructions:   39000001 cycles:   26207196 heartbeat IPC: 1.71013 cumulative IPC: 1.48814 (Simulation time: 0 hr 0 min 41 sec) 
Heartbeat CPU  0 instructions:   40000000 cycles:   26984921 heartbeat IPC: 1.28580 cumulative IPC: 1.48231 (Simulation time: 0 hr 0 min 42 sec) 
Heartbeat CPU  0 instructions:   41000001 cycles:   27853486 heartbeat IPC: 1.15133 cumulative IPC: 1.47199 (Simulation time: 0 hr 0 min 43 sec) 
Heartbeat CPU  0 instructions:   42000001 cycles:   28506406 heartbeat IPC: 1.53158 cumulative IPC: 1.47335 (Simulation time: 0 hr 0 min 44 sec) 
Heartbeat CPU  0 instructions:   43000000 cycles:   29150965 heartbeat IPC: 1.55145 cumulative IPC: 1.47508 (Simulation time: 0 hr 0 min 45 sec) 
Heartbeat CPU  0 instructions:   44000000 cycles:   29775715 heartbeat IPC: 1.60064 cumulative IPC: 1.47771 (Simulation time: 0 hr 0 min 46 sec) 
Heartbeat CPU  0 instructions:   45000000 cycles:   30511855 heartbeat IPC: 1.35844 cumulative IPC: 1.47484 (Simulation time: 0 hr 0 min 47 sec) 
Heartbeat CPU  0 instructions:   46000001 cycles:   31052616 heartbeat IPC: 1.84925 cumulative IPC: 1.48136 (Simulation time: 0 hr 0 min 48 sec) 
Heartbeat CPU  0 instructions:   47000000 cycles:   31612647 heartbeat IPC: 1.78561 cumulative IPC: 1.48675 (Simulation time: 0 hr 0 min 49 sec) 
Heartbeat CPU  0 instructions:   48000000 cycles:   32201916 heartbeat IPC: 1.69702 cumulative IPC: 1.49059 (Simulation time: 0 hr 0 min 50 sec) 
Heartbeat CPU  0 instructions:   49000001 cycles:   32944639 heartbeat IPC: 1.34640 cumulative IPC: 1.48734 (Simulation time: 0 hr 0 min 51 sec) 
Heartbeat CPU  0 instructions:   50000001 cycles:   33814982 heartbeat IPC: 1.14897 cumulative IPC: 1.47863 (Simulation time: 0 hr 0 min 52 sec) 
Heartbeat CPU  0 instructions:   51000003 cycles:   34510578 heartbeat IPC: 1.43762 cumulative IPC: 1.47781 (Simulation time: 0 hr 0 min 53 sec) 
Heartbeat CPU  0 instructions:   52000000 cycles:   35122235 heartbeat IPC: 1.63490 cumulative IPC: 1.48054 (Simulation time: 0 hr 0 min 54 sec) 
Heartbeat CPU  0 instructions:   53000000 cycles:   35700904 heartbeat IPC: 1.72810 cumulative IPC: 1.48456 (Simulation time: 0 hr 0 min 55 sec) 
Heartbeat CPU  0 instructions:   54000002 cycles:   36469581 heartbeat IPC: 1.30094 cumulative IPC: 1.48069 (Simulation time: 0 hr 0 min 56 sec) 
Heartbeat CPU  0 instructions:   55000001 cycles:   37048785 heartbeat IPC: 1.72651 cumulative IPC: 1.48453 (Simulation time: 0 hr 0 min 57 sec) 
Heartbeat CPU  0 instructions:   56000000 cycles:   37602433 heartbeat IPC: 1.80620 cumulative IPC: 1.48927 (Simulation time: 0 hr 0 min 58 sec) 
Heartbeat CPU  0 instructions:   57000002 cycles:   38193305 heartbeat IPC: 1.69242 cumulative IPC: 1.49241 (Simulation time: 0 hr 0 min 59 sec) 
Heartbeat CPU  0 instructions:   58000001 cycles:   38929166 heartbeat IPC: 1.35895 cumulative IPC: 1.48989 (Simulation time: 0 hr 1 min 0 sec) 
Heartbeat CPU  0 instructions:   59000001 cycles:   39801754 heartbeat IPC: 1.14602 cumulative IPC: 1.48235 (Simulation time: 0 hr 1 min 1 sec) 
Heartbeat CPU  0 instructions:   60000000 cycles:   40522830 heartbeat IPC: 1.38681 cumulative IPC: 1.48065 (Simulation time: 0 hr 1 min 2 sec) 
Heartbeat CPU  0 instructions:   61000003 cycles:   41143088 heartbeat IPC: 1.61224 cumulative IPC: 1.48263 (Simulation time: 0 hr 1 min 3 sec) 
Heartbeat CPU  0 instructions:   62000001 cycles:   41712971 heartbeat IPC: 1.75474 cumulative IPC: 1.48635 (Simulation time: 0 hr 1 min 4 sec) 
Heartbeat CPU  0 instructions:   63000000 cycles:   42506719 heartbeat IPC: 1.25984 cumulative IPC: 1.48212 (Simulation time: 0 hr 1 min 5 sec) 
Heartbeat CPU  0 instructions:   64000000 cycles:   43102083 heartbeat IPC: 1.67964 cumulative IPC: 1.48485 (Simulation time: 0 hr 1 min 6 sec) 
Heartbeat CPU  0 instructions:   65000003 cycles:   43653634 heartbeat IPC: 1.81307 cumulative IPC: 1.48899 (Simulation time: 0 hr 1 min 7 sec) 
Heartbeat CPU  0 instructions:   66000002 cycles:   44244133 heartbeat IPC: 1.69348 cumulative IPC: 1.49172 (Simulation time: 0 hr 1 min 9 sec) 
Heartbeat CPU  0 instructions:   67000000 cycles:   44935287 heartbeat IPC: 1.44685 cumulative IPC: 1.49103 (Simulation time: 0 hr 1 min 9 sec) 
Heartbeat CPU  0 instructions:   68000000 cycles:   45813370 heartbeat IPC: 1.13884 cumulative IPC: 1.48428 (Simulation time: 0 hr 1 min 10 sec) 
Heartbeat CPU  0 instructions:   69000001 cycles:   46566877 heartbeat IPC: 1.32713 cumulative IPC: 1.48174 (Simulation time: 0 hr 1 min 11 sec) 
Heartbeat CPU  0 instructions:   70000000 cycles:   47186252 heartbeat IPC: 1.61453 cumulative IPC: 1.48348 (Simulation time: 0 hr 1 min 12 sec) 
Heartbeat CPU  0 instructions:   71000002 cycles:   47720251 heartbeat IPC: 1.87267 cumulative IPC: 1.48784 (Simulation time: 0 hr 1 min 13 sec) 
Heartbeat CPU  0 instructions:   72000000 cycles:   48526735 heartbeat IPC: 1.23995 cumulative IPC: 1.48372 (Simulation time: 0 hr 1 min 14 sec) 
Heartbeat CPU  0 instructions:   73000001 cycles:   49130787 heartbeat IPC: 1.65549 cumulative IPC: 1.48583 (Simulation time: 0 hr 1 min 15 sec) 
Heartbeat CPU  0 instructions:   74000002 cycles:   49676707 heartbeat IPC: 1.83177 cumulative IPC: 1.48963 (Simulation time: 0 hr 1 min 16 sec) 
Heartbeat CPU  0 instructions:   75000003 cycles:   50275927 heartbeat IPC: 1.66884 cumulative IPC: 1.49177 (Simulation time: 0 hr 1 min 18 sec) 
Heartbeat CPU  0 instructions:   76000000 cycles:   50932286 heartbeat IPC: 1.52355 cumulative IPC: 1.49218 (Simulation time: 0 hr 1 min 19 sec) 
Heartbeat CPU  0 instructions:   77000001 cycles:   51807449 heartbeat IPC: 1.14265 cumulative IPC: 1.48627 (Simulation time: 0 hr 1 min 19 sec) 
Heartbeat CPU  0 instructions:   78000001 cycles:   52583112 heartbeat IPC: 1.28922 cumulative IPC: 1.48337 (Simulation time: 0 hr 1 min 20 sec) 
Heartbeat CPU  0 instructions:   79000003 cycles:   53200704 heartbeat IPC: 1.61920 cumulative IPC: 1.48494 (Simulation time: 0 hr 1 min 21 sec) 
Heartbeat CPU  0 instructions:   80000000 cycles:   53768600 heartbeat IPC: 1.76088 cumulative IPC: 1.48786 (Simulation time: 0 hr 1 min 22 sec) 
Heartbeat CPU  0 instructions:   81000001 cycles:   54555202 heartbeat IPC: 1.27129 cumulative IPC: 1.48473 (Simulation time: 0 hr 1 min 23 sec) 
Heartbeat CPU  0 instructions:   82000002 cycles:   55172722 heartbeat IPC: 1.61938 cumulative IPC: 1.48624 (Simulation time: 0 hr 1 min 24 sec) 
Heartbeat CPU  0 instructions:   83000003 cycles:   55735625 heartbeat IPC: 1.77651 cumulative IPC: 1.48917 (Simulation time: 0 hr 1 min 25 sec) 
Heartbeat CPU  0 instructions:   84000000 cycles:   56290587 heartbeat IPC: 1.80192 cumulative IPC: 1.49226 (Simulation time: 0 hr 1 min 27 sec) 
Heartbeat CPU  0 instructions:   85000001 cycles:   56881451 heartbeat IPC: 1.69244 cumulative IPC: 1.49434 (Simulation time: 0 hr 1 min 28 sec) 
Heartbeat CPU  0 instructions:   86000000 cycles:   57755722 heartbeat IPC: 1.14381 cumulative IPC: 1.48903 (Simulation time: 0 hr 1 min 28 sec) 
Heartbeat CPU  0 instructions:   87000000 cycles:   58584658 heartbeat IPC: 1.20637 cumulative IPC: 1.48503 (Simulation time: 0 hr 1 min 29 sec) 
Heartbeat CPU  0 instructions:   88000000 cycles:   59205344 heartbeat IPC: 1.61112 cumulative IPC: 1.48635 (Simulation time: 0 hr 1 min 30 sec) 
Heartbeat CPU  0 instructions:   89000003 cycles:   59850225 heartbeat IPC: 1.55068 cumulative IPC: 1.48705 (Simulation time: 0 hr 1 min 31 sec) 
Heartbeat CPU  0 instructions:   90000003 cycles:   60543864 heartbeat IPC: 1.44167 cumulative IPC: 1.48653 (Simulation time: 0 hr 1 min 32 sec) 
Heartbeat CPU  0 instructions:   91000001 cycles:   61224453 heartbeat IPC: 1.46931 cumulative IPC: 1.48633 (Simulation time: 0 hr 1 min 33 sec) 
Heartbeat CPU  0 instructions:   92000000 cycles:   61799089 heartbeat IPC: 1.74023 cumulative IPC: 1.48870 (Simulation time: 0 hr 1 min 34 sec) 
Heartbeat CPU  0 instructions:   93000003 cycles:   62345040 heartbeat IPC: 1.83167 cumulative IPC: 1.49170 (Simulation time: 0 hr 1 min 36 sec) 
Heartbeat CPU  0 instructions:   94000002 cycles:   62937416 heartbeat IPC: 1.68812 cumulative IPC: 1.49355 (Simulation time: 0 hr 1 min 37 sec) 
Heartbeat CPU  0 instructions:   95000003 cycles:   63776205 heartbeat IPC: 1.19220 cumulative IPC: 1.48958 (Simulation time: 0 hr 1 min 38 sec) 
Heartbeat CPU  0 instructions:   96000000 cycles:   64626127 heartbeat IPC: 1.17658 cumulative IPC: 1.48547 (Simulation time: 0 hr 1 min 38 sec) 
Heartbeat CPU  0 instructions:   97000002 cycles:   65262652 heartbeat IPC: 1.57103 cumulative IPC: 1.48630 (Simulation time: 0 hr 1 min 39 sec) 
Heartbeat CPU  0 instructions:   98000003 cycles:   65913426 heartbeat IPC: 1.53663 cumulative IPC: 1.48680 (Simulation time: 0 hr 1 min 40 sec) 
Heartbeat CPU  0 instructions:   99000002 cycles:   66565354 heartbeat IPC: 1.53391 cumulative IPC: 1.48726 (Simulation time: 0 hr 1 min 41 sec) 
Heartbeat CPU  0 instructions:  100000000 cycles:   67149594 heartbeat IPC: 1.71162 cumulative IPC: 1.48921 (Simulation time: 0 hr 1 min 42 sec) 

Warmup complete CPU  0 instructions:  100000002 cycles:   67149596 (Simulation time: 0 hr 1 min 42 sec) 

Heartbeat CPU  0 instructions:  101000001 cycles:   73432119 heartbeat IPC: 0.15917 cumulative IPC: 0.15917 (Simulation time: 0 hr 1 min 45 sec) 
Heartbeat CPU  0 instructions:  102000001 cycles:   77106135 heartbeat IPC: 0.27218 cumulative IPC: 0.20087 (Simulation time: 0 hr 1 min 47 sec) 
Heartbeat CPU  0 instructions:  103000001 cycles:   81392389 heartbeat IPC: 0.23330 cumulative IPC: 0.21063 (Simulation time: 0 hr 1 min 50 sec) 
Heartbeat CPU  0 instructions:  104000000 cycles:   85747991 heartbeat IPC: 0.22959 cumulative IPC: 0.21507 (Simulation time: 0 hr 1 min 52 sec) 
Heartbeat CPU  0 instructions:  105000003 cycles:   89189979 heartbeat IPC: 0.29053 cumulative IPC: 0.22686 (Simulation time: 0 hr 1 min 54 sec) 
Heartbeat CPU  0 instructions:  106000001 cycles:   92348974 heartbeat IPC: 0.31656 cumulative IPC: 0.23810 (Simulation time: 0 hr 1 min 57 sec) 
Heartbeat CPU  0 instructions:  107000003 cycles:   96604408 heartbeat IPC: 0.23499 cumulative IPC: 0.23765 (Simulation time: 0 hr 1 min 59 sec) 
Heartbeat CPU  0 instructions:  108000000 cycles:  100200583 heartbeat IPC: 0.27807 cumulative IPC: 0.24205 (Simulation time: 0 hr 2 min 1 sec) 
Heartbeat CPU  0 instructions:  109000000 cycles:  103741832 heartbeat IPC: 0.28239 cumulative IPC: 0.24595 (Simulation time: 0 hr 2 min 2 sec) 
Heartbeat CPU  0 instructions:  110000001 cycles:  106146847 heartbeat IPC: 0.41580 cumulative IPC: 0.25643 (Simulation time: 0 hr 2 min 4 sec) 
Heartbeat CPU  0 instructions:  111000003 cycles:  108825356 heartbeat IPC: 0.37334 cumulative IPC: 0.26394 (Simulation time: 0 hr 2 min 6 sec) 
Heartbeat CPU  0 instructions:  112000000 cycles:  110766197 heartbeat IPC: 0.51524 cumulative IPC: 0.27512 (Simulation time: 0 hr 2 min 8 sec) 
Heartbeat CPU  0 instructions:  113000002 cycles:  112656834 heartbeat IPC: 0.52892 cumulative IPC: 0.28567 (Simulation time: 0 hr 2 min 9 sec) 
Heartbeat CPU  0 instructions:  114000001 cycles:  114324752 heartbeat IPC: 0.59955 cumulative IPC: 0.29677 (Simulation time: 0 hr 2 min 11 sec) 
Heartbeat CPU  0 instructions:  115000000 cycles:  116473048 heartbeat IPC: 0.46548 cumulative IPC: 0.30411 (Simulation time: 0 hr 2 min 13 sec) 
Heartbeat CPU  0 instructions:  116000000 cycles:  120463215 heartbeat IPC: 0.25062 cumulative IPC: 0.30011 (Simulation time: 0 hr 2 min 15 sec) 
Heartbeat CPU  0 instructions:  117000000 cycles:  123413391 heartbeat IPC: 0.33896 cumulative IPC: 0.30215 (Simulation time: 0 hr 2 min 17 sec) 
Heartbeat CPU  0 instructions:  118000002 cycles:  126166355 heartbeat IPC: 0.36325 cumulative IPC: 0.30500 (Simulation time: 0 hr 2 min 19 sec) 
Heartbeat CPU  0 instructions:  119000000 cycles:  129291050 heartbeat IPC: 0.32003 cumulative IPC: 0.30575 (Simulation time: 0 hr 2 min 21 sec) 
Heartbeat CPU  0 instructions:  120000000 cycles:  131820327 heartbeat IPC: 0.39537 cumulative IPC: 0.30926 (Simulation time: 0 hr 2 min 23 sec) 
Heartbeat CPU  0 instructions:  121000001 cycles:  136686095 heartbeat IPC: 0.20552 cumulative IPC: 0.30200 (Simulation time: 0 hr 2 min 26 sec) 
Heartbeat CPU  0 instructions:  122000001 cycles:  141071472 heartbeat IPC: 0.22803 cumulative IPC: 0.29761 (Simulation time: 0 hr 2 min 28 sec) 
Heartbeat CPU  0 instructions:  123000000 cycles:  143231683 heartbeat IPC: 0.46292 cumulative IPC: 0.30231 (Simulation time: 0 hr 2 min 29 sec) 
Heartbeat CPU  0 instructions:  124000000 cycles:  145117754 heartbeat IPC: 0.53020 cumulative IPC: 0.30782 (Simulation time: 0 hr 2 min 30 sec) 
Heartbeat CPU  0 instructions:  125000000 cycles:  149684235 heartbeat IPC: 0.21899 cumulative IPC: 0.30290 (Simulation time: 0 hr 2 min 32 sec) 
Heartbeat CPU  0 instructions:  126000002 cycles:  152340956 heartbeat IPC: 0.37640 cumulative IPC: 0.30520 (Simulation time: 0 hr 2 min 34 sec) 
Heartbeat CPU  0 instructions:  127000002 cycles:  155797583 heartbeat IPC: 0.28930 cumulative IPC: 0.30458 (Simulation time: 0 hr 2 min 36 sec) 
Heartbeat CPU  0 instructions:  128000000 cycles:  159176136 heartbeat IPC: 0.29598 cumulative IPC: 0.30426 (Simulation time: 0 hr 2 min 38 sec) 
Heartbeat CPU  0 instructions:  129000001 cycles:  161824942 heartbeat IPC: 0.37753 cumulative IPC: 0.30631 (Simulation time: 0 hr 2 min 40 sec) 
Heartbeat CPU  0 instructions:  130000001 cycles:  168113535 heartbeat IPC: 0.15902 cumulative IPC: 0.29714 (Simulation time: 0 hr 2 min 43 sec) 
Heartbeat CPU  0 instructions:  131000000 cycles:  170436867 heartbeat IPC: 0.43042 cumulative IPC: 0.30013 (Simulation time: 0 hr 2 min 45 sec) 
Heartbeat CPU  0 instructions:  132000000 cycles:  172534495 heartbeat IPC: 0.47673 cumulative IPC: 0.30365 (Simulation time: 0 hr 2 min 46 sec) 
Heartbeat CPU  0 instructions:  133000000 cycles:  175314391 heartbeat IPC: 0.35973 cumulative IPC: 0.30509 (Simulation time: 0 hr 2 min 47 sec) 
Heartbeat CPU  0 instructions:  134000000 cycles:  179371638 heartbeat IPC: 0.24647 cumulative IPC: 0.30297 (Simulation time: 0 hr 2 min 49 sec) 
Heartbeat CPU  0 instructions:  135000002 cycles:  182666239 heartbeat IPC: 0.30353 cumulative IPC: 0.30299 (Simulation time: 0 hr 2 min 51 sec) 
Heartbeat CPU  0 instructions:  136000000 cycles:  184865606 heartbeat IPC: 0.45468 cumulative IPC: 0.30582 (Simulation time: 0 hr 2 min 53 sec) 
Heartbeat CPU  0 instructions:  137000000 cycles:  188448054 heartbeat IPC: 0.27914 cumulative IPC: 0.30503 (Simulation time: 0 hr 2 min 55 sec) 
Heartbeat CPU  0 instructions:  138000001 cycles:  191808435 heartbeat IPC: 0.29759 cumulative IPC: 0.30483 (Simulation time: 0 hr 2 min 57 sec) 
Heartbeat CPU  0 instructions:  139000000 cycles:  197384690 heartbeat IPC: 0.17933 cumulative IPC: 0.29946 (Simulation time: 0 hr 3 min 0 sec) 
Heartbeat CPU  0 instructions:  140000000 cycles:  199550366 heartbeat IPC: 0.46175 cumulative IPC: 0.30211 (Simulation time: 0 hr 3 min 1 sec) 
Heartbeat CPU  0 instructions:  141000000 cycles:  201572297 heartbeat IPC: 0.49458 cumulative IPC: 0.30501 (Simulation time: 0 hr 3 min 2 sec) 
Heartbeat CPU  0 instructions:  142000000 cycles:  205125647 heartbeat IPC: 0.28142 cumulative IPC: 0.30440 (Simulation time: 0 hr 3 min 4 sec) 
Heartbeat CPU  0 instructions:  143000003 cycles:  208275829 heartbeat IPC: 0.31744 cumulative IPC: 0.30469 (Simulation time: 0 hr 3 min 6 sec) 
Heartbeat CPU  0 instructions:  144000000 cycles:  211924220 heartbeat IPC: 0.27409 cumulative IPC: 0.30392 (Simulation time: 0 hr 3 min 8 sec) 
Heartbeat CPU  0 instructions:  145000002 cycles:  214474391 heartbeat IPC: 0.39213 cumulative IPC: 0.30545 (Simulation time: 0 hr 3 min 10 sec) 
Heartbeat CPU  0 instructions:  146000003 cycles:  217332085 heartbeat IPC: 0.34993 cumulative IPC: 0.30629 (Simulation time: 0 hr 3 min 12 sec) 
Heartbeat CPU  0 instructions:  147000002 cycles:  221826610 heartbeat IPC: 0.22249 cumulative IPC: 0.30386 (Simulation time: 0 hr 3 min 15 sec) 
Heartbeat CPU  0 instructions:  148000000 cycles:  226506066 heartbeat IPC: 0.21370 cumulative IPC: 0.30121 (Simulation time: 0 hr 3 min 17 sec) 
Heartbeat CPU  0 instructions:  149000000 cycles:  228679074 heartbeat IPC: 0.46019 cumulative IPC: 0.30335 (Simulation time: 0 hr 3 min 18 sec) 
Heartbeat CPU  0 instructions:  150000002 cycles:  230617165 heartbeat IPC: 0.51597 cumulative IPC: 0.30587 (Simulation time: 0 hr 3 min 19 sec) 
Heartbeat CPU  0 instructions:  151000000 cycles:  234829196 heartbeat IPC: 0.23741 cumulative IPC: 0.30415 (Simulation time: 0 hr 3 min 21 sec) 
Heartbeat CPU  0 instructions:  152000000 cycles:  237520387 heartbeat IPC: 0.37158 cumulative IPC: 0.30522 (Simulation time: 0 hr 3 min 23 sec) 
Heartbeat CPU  0 instructions:  153000000 cycles:  240756280 heartbeat IPC: 0.30903 cumulative IPC: 0.30529 (Simulation time: 0 hr 3 min 25 sec) 
Heartbeat CPU  0 instructions:  154000002 cycles:  244177149 heartbeat IPC: 0.29232 cumulative IPC: 0.30504 (Simulation time: 0 hr 3 min 27 sec) 
Heartbeat CPU  0 instructions:  155000002 cycles:  246243991 heartbeat IPC: 0.48383 cumulative IPC: 0.30710 (Simulation time: 0 hr 3 min 29 sec) 
Heartbeat CPU  0 instructions:  156000000 cycles:  251670746 heartbeat IPC: 0.18427 cumulative IPC: 0.30349 (Simulation time: 0 hr 3 min 32 sec) 
Heartbeat CPU  0 instructions:  157000000 cycles:  255597089 heartbeat IPC: 0.25469 cumulative IPC: 0.30247 (Simulation time: 0 hr 3 min 34 sec) 
Heartbeat CPU  0 instructions:  158000003 cycles:  257756390 heartbeat IPC: 0.46311 cumulative IPC: 0.30429 (Simulation time: 0 hr 3 min 35 sec) 
Heartbeat CPU  0 instructions:  159000000 cycles:  259597507 heartbeat IPC: 0.54315 cumulative IPC: 0.30658 (Simulation time: 0 hr 3 min 37 sec) 
Heartbeat CPU  0 instructions:  160000000 cycles:  264732051 heartbeat IPC: 0.19476 cumulative IPC: 0.30367 (Simulation time: 0 hr 3 min 39 sec) 
Heartbeat CPU  0 instructions:  161000003 cycles:  267127144 heartbeat IPC: 0.41752 cumulative IPC: 0.30503 (Simulation time: 0 hr 3 min 41 sec) 
Heartbeat CPU  0 instructions:  162000001 cycles:  270164646 heartbeat IPC: 0.32922 cumulative IPC: 0.30540 (Simulation time: 0 hr 3 min 43 sec) 
Heartbeat CPU  0 instructions:  163000000 cycles:  273604121 heartbeat IPC: 0.29074 cumulative IPC: 0.30515 (Simulation time: 0 hr 3 min 45 sec) 
Heartbeat CPU  0 instructions:  164000000 cycles:  276208875 heartbeat IPC: 0.38391 cumulative IPC: 0.30613 (Simulation time: 0 hr 3 min 47 sec) 
Heartbeat CPU  0 instructions:  165000001 cycles:  282463944 heartbeat IPC: 0.15987 cumulative IPC: 0.30188 (Simulation time: 0 hr 3 min 50 sec) 
Heartbeat CPU  0 instructions:  166000000 cycles:  284853598 heartbeat IPC: 0.41847 cumulative IPC: 0.30316 (Simulation time: 0 hr 3 min 51 sec) 
Heartbeat CPU  0 instructions:  167000001 cycles:  286951089 heartbeat IPC: 0.47676 cumulative IPC: 0.30482 (Simulation time: 0 hr 3 min 52 sec) 
Heartbeat CPU  0 instructions:  168000000 cycles:  289698334 heartbeat IPC: 0.36400 cumulative IPC: 0.30555 (Simulation time: 0 hr 3 min 54 sec) 
Heartbeat CPU  0 instructions:  169000001 cycles:  293777293 heartbeat IPC: 0.24516 cumulative IPC: 0.30446 (Simulation time: 0 hr 3 min 56 sec) 
Heartbeat CPU  0 instructions:  170000002 cycles:  297050394 heartbeat IPC: 0.30552 cumulative IPC: 0.30448 (Simulation time: 0 hr 3 min 58 sec) 
Heartbeat CPU  0 instructions:  171000000 cycles:  299256051 heartbeat IPC: 0.45338 cumulative IPC: 0.30589 (Simulation time: 0 hr 4 min 0 sec) 
Heartbeat CPU  0 instructions:  172000000 cycles:  302843044 heartbeat IPC: 0.27879 cumulative IPC: 0.30548 (Simulation time: 0 hr 4 min 2 sec) 
Heartbeat CPU  0 instructions:  173000000 cycles:  306175993 heartbeat IPC: 0.30003 cumulative IPC: 0.30541 (Simulation time: 0 hr 4 min 4 sec) 
Heartbeat CPU  0 instructions:  174000000 cycles:  311814143 heartbeat IPC: 0.17736 cumulative IPC: 0.30245 (Simulation time: 0 hr 4 min 7 sec) 
Heartbeat CPU  0 instructions:  175000000 cycles:  313982554 heartbeat IPC: 0.46117 cumulative IPC: 0.30385 (Simulation time: 0 hr 4 min 9 sec) 
Heartbeat CPU  0 instructions:  176000000 cycles:  316009048 heartbeat IPC: 0.49346 cumulative IPC: 0.30539 (Simulation time: 0 hr 4 min 10 sec) 
Heartbeat CPU  0 instructions:  177000002 cycles:  319498937 heartbeat IPC: 0.28654 cumulative IPC: 0.30513 (Simulation time: 0 hr 4 min 12 sec) 
Heartbeat CPU  0 instructions:  178000001 cycles:  322714139 heartbeat IPC: 0.31102 cumulative IPC: 0.30521 (Simulation time: 0 hr 4 min 14 sec) 
Heartbeat CPU  0 instructions:  179000003 cycles:  326376730 heartbeat IPC: 0.27303 cumulative IPC: 0.30475 (Simulation time: 0 hr 4 min 16 sec) 
Heartbeat CPU  0 instructions:  180000000 cycles:  329560706 heartbeat IPC: 0.31407 cumulative IPC: 0.30487 (Simulation time: 0 hr 4 min 18 sec) 
Heartbeat CPU  0 instructions:  181000003 cycles:  331828431 heartbeat IPC: 0.44097 cumulative IPC: 0.30603 (Simulation time: 0 hr 4 min 20 sec) 
Heartbeat CPU  0 instructions:  182000000 cycles:  337021254 heartbeat IPC: 0.19257 cumulative IPC: 0.30385 (Simulation time: 0 hr 4 min 23 sec) 
Heartbeat CPU  0 instructions:  183000000 cycles:  341135684 heartbeat IPC: 0.24305 cumulative IPC: 0.30294 (Simulation time: 0 hr 4 min 25 sec) 
Heartbeat CPU  0 instructions:  184000000 cycles:  343294108 heartbeat IPC: 0.46330 cumulative IPC: 0.30419 (Simulation time: 0 hr 4 min 26 sec) 
Heartbeat CPU  0 instructions:  185000002 cycles:  345134063 heartbeat IPC: 0.54349 cumulative IPC: 0.30577 (Simulation time: 0 hr 4 min 28 sec) 
Heartbeat CPU  0 instructions:  186000001 cycles:  350074974 heartbeat IPC: 0.20239 cumulative IPC: 0.30397 (Simulation time: 0 hr 4 min 30 sec) 
Heartbeat CPU  0 instructions:  187000000 cycles:  352583521 heartbeat IPC: 0.39864 cumulative IPC: 0.30480 (Simulation time: 0 hr 4 min 31 sec) 
Heartbeat CPU  0 instructions:  188000000 cycles:  355414412 heartbeat IPC: 0.35325 cumulative IPC: 0.30527 (Simulation time: 0 hr 4 min 33 sec) 
Heartbeat CPU  0 instructions:  189000001 cycles:  358876065 heartbeat IPC: 0.28888 cumulative IPC: 0.30508 (Simulation time: 0 hr 4 min 35 sec) 
Heartbeat CPU  0 instructions:  190000001 cycles:  361146035 heartbeat IPC: 0.44053 cumulative IPC: 0.30613 (Simulation time: 0 hr 4 min 37 sec) 
Heartbeat CPU  0 instructions:  191000002 cycles:  367144763 heartbeat IPC: 0.16670 cumulative IPC: 0.30334 (Simulation time: 0 hr 4 min 41 sec) 
Heartbeat CPU  0 instructions:  192000000 cycles:  370223937 heartbeat IPC: 0.32476 cumulative IPC: 0.30356 (Simulation time: 0 hr 4 min 42 sec) 
Heartbeat CPU  0 instructions:  193000003 cycles:  372353942 heartbeat IPC: 0.46948 cumulative IPC: 0.30471 (Simulation time: 0 hr 4 min 43 sec) 
Heartbeat CPU  0 instructions:  194000001 cycles:  374555470 heartbeat IPC: 0.45423 cumulative IPC: 0.30578 (Simulation time: 0 hr 4 min 45 sec) 
Heartbeat CPU  0 instructions:  195000001 cycles:  379236042 heartbeat IPC: 0.21365 cumulative IPC: 0.30440 (Simulation time: 0 hr 4 min 47 sec) 
Heartbeat CPU  0 instructions:  196000000 cycles:  382096434 heartbeat IPC: 0.34960 cumulative IPC: 0.30481 (Simulation time: 0 hr 4 min 49 sec) 
Heartbeat CPU  0 instructions:  197000000 cycles:  384602375 heartbeat IPC: 0.39905 cumulative IPC: 0.30556 (Simulation time: 0 hr 4 min 51 sec) 
Heartbeat CPU  0 instructions:  198000000 cycles:  388063558 heartbeat IPC: 0.28892 cumulative IPC: 0.30538 (Simulation time: 0 hr 4 min 53 sec) 
Heartbeat CPU  0 instructions:  199000002 cycles:  390895379 heartbeat IPC: 0.35313 cumulative IPC: 0.30580 (Simulation time: 0 hr 4 min 55 sec) 
Heartbeat CPU  0 instructions:  200000000 cycles:  397153020 heartbeat IPC: 0.15980 cumulative IPC: 0.30303 (Simulation time: 0 hr 4 min 58 sec) 
Finished CPU 0 instructions: 100000000 cycles: 330003437 cumulative IPC: 0.30303 (Simulation time: 0 hr 4 min 58 sec) 

ChampSim completed all CPUs

[ROI Statistics]
Core_0_instructions 100000000
Core_0_cycles 330003437
Core_0_IPC 0.30303

Core_0_branch_prediction_accuracy 95.09858
Core_0_branch_MPKI 8.66907
Core_0_average_ROB_occupancy_at_mispredict 84.12180

Core_0_L1D_total_access 20407233
Core_0_L1D_total_hit 15178792
Core_0_L1D_total_miss 5228441
Core_0_L1D_loads 14905752
Core_0_L1D_load_hit 10505889
Core_0_L1D_load_miss 4399863
Core_0_L1D_RFOs 5501481
Core_0_L1D_RFO_hit 4672903
Core_0_L1D_RFO_miss 828578
Core_0_L1D_prefetches 0
Core_0_L1D_prefetch_hit 0
Core_0_L1D_prefetch_miss 0
Core_0_L1D_writebacks 0
Core_0_L1D_writeback_hit 0
Core_0_L1D_writeback_miss 0
Core_0_L1D_prefetch_requested 0
Core_0_L1D_prefetch_issued 0
Core_0_L1D_prefetch_useful 0
Core_0_L1D_prefetch_useless 0
Core_0_L1D_prefetch_late 0
Core_0_L1D_average_miss_latency 141.01007

Core_0_L1I_total_access 21141475
Core_0_L1I_total_hit 21140843
Core_0_L1I_total_miss 632
Core_0_L1I_loads 21141475
Core_0_L1I_load_hit 21140843
Core_0_L1I_load_miss 632
Core_0_L1I_RFOs 0
Core_0_L1I_RFO_hit 0
Core_0_L1I_RFO_miss 0
Core_0_L1I_prefetches 0
Core_0_L1I_prefetch_hit 0
Core_0_L1I_prefetch_miss 0
Core_0_L1I_writebacks 0
Core_0_L1I_writeback_hit 0
Core_0_L1I_writeback_miss 0
Core_0_L1I_prefetch_requested 0
Core_0_L1I_prefetch_issued 0
Core_0_L1I_prefetch_useful 0
Core_0_L1I_prefetch_useless 0
Core_0_L1I_prefetch_late 0
Core_0_L1I_average_miss_latency 206.34335

Core_0_L2C_total_access 7609107
Core_0_L2C_total_hit 3788919
Core_0_L2C_total_miss 3820188
Core_0_L2C_loads 4399924
Core_0_L2C_load_hit 1253498
Core_0_L2C_load_miss 3146426
Core_0_L2C_RFOs 828494
Core_0_L2C_RFO_hit 154825
Core_0_L2C_RFO_miss 673669
Core_0_L2C_prefetches 0
Core_0_L2C_prefetch_hit 0
Core_0_L2C_prefetch_miss 0
Core_0_L2C_writebacks 2380689
Core_0_L2C_writeback_hit 2380596
Core_0_L2C_writeback_miss 93
Core_0_L2C_prefetch_requested 0
Core_0_L2C_prefetch_issued 0
Core_0_L2C_prefetch_useful 0
Core_0_L2C_prefetch_useless 0
Core_0_L2C_prefetch_late 0
Core_0_L2C_average_miss_latency 172.62823

Core_0_LLC_total_access 7886333
Core_0_LLC_total_hit 4235581
Core_0_LLC_total_miss 3650752
Core_0_LLC_loads 3146411
Core_0_LLC_load_hit 1528741
Core_0_LLC_load_miss 1617670
Core_0_LLC_RFOs 673666
Core_0_LLC_RFO_hit 133777
Core_0_LLC_RFO_miss 539889
Core_0_LLC_prefetches 2496819
Core_0_LLC_prefetch_hit 1004187
Core_0_LLC_prefetch_miss 1492632
Core_0_LLC_writebacks 1569437
Core_0_LLC_writeback_hit 1568876
Core_0_LLC_writeback_miss 561
Core_0_LLC_prefetch_requested 6568720
Core_0_LLC_prefetch_issued 6466579
Core_0_LLC_prefetch_useful 2651921
Core_0_LLC_prefetch_useless 1100476
Core_0_LLC_prefetch_late 242486
Core_0_LLC_average_miss_latency 251.27477

Core_0_major_page_fault 0
Core_0_minor_page_fault 12935

LLC Next Line Prefetcher Final Stats: none
Channel_0_RQ_row_buffer_hit 885878
Channel_0_RQ_row_buffer_miss 2763573
Channel_0_WQ_row_buffer_hit 474422
Channel_0_WQ_row_buffer_miss 734851
Channel_0_WQ_full 0
Channel_0_dbus_congested 2241936

avg_congested_cycle 10
