*************************************************
   ChampSim Multicore Out-of-Order Simulator
   Last compiled: Dec 24 2023 17:43:10
*************************************************

trace_0 ./test_trace/450.soplex-247B.champsimtrace.xz
CPU 0 L2C IP-based stride prefetcher
Initialize DRRIP state
Assign rand_sets[0]: 454  LLC: 2048
rand_sets[0]: 454
Assign rand_sets[1]: 1662  LLC: 2048
rand_sets[1]: 1662
Assign rand_sets[2]: 1921  LLC: 2048
rand_sets[2]: 1921
Assign rand_sets[3]: 1131  LLC: 2048
rand_sets[3]: 1131
Assign rand_sets[4]: 331  LLC: 2048
rand_sets[4]: 331
Assign rand_sets[5]: 1531  LLC: 2048
rand_sets[5]: 1531
Assign rand_sets[6]: 482  LLC: 2048
rand_sets[6]: 482
Assign rand_sets[7]: 1275  LLC: 2048
rand_sets[7]: 1275
Assign rand_sets[8]: 1876  LLC: 2048
rand_sets[8]: 1876
Assign rand_sets[9]: 2038  LLC: 2048
rand_sets[9]: 2038
Assign rand_sets[10]: 701  LLC: 2048
rand_sets[10]: 701
Assign rand_sets[11]: 479  LLC: 2048
rand_sets[11]: 479
Assign rand_sets[12]: 892  LLC: 2048
rand_sets[12]: 892
Assign rand_sets[13]: 1820  LLC: 2048
rand_sets[13]: 1820
Assign rand_sets[14]: 1505  LLC: 2048
rand_sets[14]: 1505
Assign rand_sets[15]: 1159  LLC: 2048
rand_sets[15]: 1159
Assign rand_sets[16]: 513  LLC: 2048
rand_sets[16]: 513
Assign rand_sets[17]: 703  LLC: 2048
rand_sets[17]: 703
Assign rand_sets[18]: 561  LLC: 2048
rand_sets[18]: 561
Assign rand_sets[19]: 990  LLC: 2048
rand_sets[19]: 990
Assign rand_sets[20]: 342  LLC: 2048
rand_sets[20]: 342
Assign rand_sets[21]: 882  LLC: 2048
rand_sets[21]: 882
Assign rand_sets[22]: 15  LLC: 2048
rand_sets[22]: 15
Assign rand_sets[23]: 71  LLC: 2048
rand_sets[23]: 71
Assign rand_sets[24]: 1127  LLC: 2048
rand_sets[24]: 1127
Assign rand_sets[25]: 1382  LLC: 2048
rand_sets[25]: 1382
Assign rand_sets[26]: 647  LLC: 2048
rand_sets[26]: 647
Assign rand_sets[27]: 857  LLC: 2048
rand_sets[27]: 857
Assign rand_sets[28]: 1450  LLC: 2048
rand_sets[28]: 1450
Assign rand_sets[29]: 1160  LLC: 2048
rand_sets[29]: 1160
Assign rand_sets[30]: 1852  LLC: 2048
rand_sets[30]: 1852
Assign rand_sets[31]: 1881  LLC: 2048
rand_sets[31]: 1881
Assign rand_sets[32]: 1770  LLC: 2048
rand_sets[32]: 1770
Assign rand_sets[33]: 1622  LLC: 2048
rand_sets[33]: 1622
Assign rand_sets[34]: 275  LLC: 2048
rand_sets[34]: 275
Assign rand_sets[35]: 635  LLC: 2048
rand_sets[35]: 635
Assign rand_sets[36]: 466  LLC: 2048
rand_sets[36]: 466
Assign rand_sets[37]: 1413  LLC: 2048
rand_sets[37]: 1413
Assign rand_sets[38]: 417  LLC: 2048
rand_sets[38]: 417
Assign rand_sets[39]: 472  LLC: 2048
rand_sets[39]: 472
Assign rand_sets[40]: 1340  LLC: 2048
rand_sets[40]: 1340
Assign rand_sets[41]: 852  LLC: 2048
rand_sets[41]: 852
Assign rand_sets[42]: 1365  LLC: 2048
rand_sets[42]: 1365
Assign rand_sets[43]: 47  LLC: 2048
rand_sets[43]: 47
Assign rand_sets[44]: 823  LLC: 2048
rand_sets[44]: 823
Assign rand_sets[45]: 686  LLC: 2048
rand_sets[45]: 686
Assign rand_sets[46]: 1637  LLC: 2048
rand_sets[46]: 1637
Assign rand_sets[47]: 1115  LLC: 2048
rand_sets[47]: 1115
Assign rand_sets[48]: 986  LLC: 2048
rand_sets[48]: 986
Assign rand_sets[49]: 258  LLC: 2048
rand_sets[49]: 258
Assign rand_sets[50]: 633  LLC: 2048
rand_sets[50]: 633
Assign rand_sets[51]: 920  LLC: 2048
rand_sets[51]: 920
Assign rand_sets[52]: 204  LLC: 2048
rand_sets[52]: 204
Assign rand_sets[53]: 227  LLC: 2048
rand_sets[53]: 227
Assign rand_sets[54]: 1818  LLC: 2048
rand_sets[54]: 1818
Assign rand_sets[55]: 886  LLC: 2048
rand_sets[55]: 886
Assign rand_sets[56]: 1422  LLC: 2048
rand_sets[56]: 1422
Assign rand_sets[57]: 607  LLC: 2048
rand_sets[57]: 607
Assign rand_sets[58]: 217  LLC: 2048
rand_sets[58]: 217
Assign rand_sets[59]: 1945  LLC: 2048
rand_sets[59]: 1945
Assign rand_sets[60]: 143  LLC: 2048
rand_sets[60]: 143
Assign rand_sets[61]: 1311  LLC: 2048
rand_sets[61]: 1311
Assign rand_sets[62]: 319  LLC: 2048
rand_sets[62]: 319
Assign rand_sets[63]: 1846  LLC: 2048
rand_sets[63]: 1846
warmup_instructions 100000000
simulation_instructions 100000000
champsim_seed 223

num_cpus 1
cpu_freq 4000
dram_io_freq 2400
page_size 4096
block_size 64
max_read_per_cycle 8
max_fill_per_cycle 1
dram_channels 1
dram_ranks 1
dram_banks 8
dram_rows 65536
dram_columns 128
dram_row_size 8
dram_size 4096
dram_pages 1048576

fetch_width 6
decode_width 6
exec_width 4
lq_width 2
sq_width 2
retire_width 4
scheduler_size 128
branch_mispredict_penalty 20
rob_size 256
lq_size 72
sq_size 56
num_instr_destinations_sparc 4
num_instr_destinations 2
num_instr_sources 4

itlb_set 16
itlb_way 8
itlb_rq_size 16
itlb_wq_size 16
itlb_pq_size 0
itlb_mshr_size 8
itlb_latency 1

dtlb_set 16
dtlb_way 4
dtlb_rq_size 16
dtlb_wq_size 16
dtlb_pq_size 0
dtlb_mshr_size 8
dtlb_latency 1

stlb_set 128
stlb_way 12
stlb_rq_size 32
stlb_wq_size 32
stlb_pq_size 0
stlb_mshr_size 16
stlb_latency 8

l1i_size 32
l1i_set 64
l1i_way 8
l1i_rq_size 64
l1i_wq_size 64
l1i_pq_size 8
l1i_mshr_size 8
l1i_latency 1

l1d_size 32
l1d_set 64
l1d_way 8
l1d_rq_size 64
l1d_wq_size 64
l1d_pq_size 8
l1d_mshr_size 16
l1d_latency 4

l2c_size 512
l2c_set 1024
l2c_way 8
l2c_rq_size 32
l2c_wq_size 32
l2c_pq_size 16
l2c_mshr_size 32
l2c_latency 10

llc_size 2048
llc_set 2048
llc_way 16
llc_rq_size 32
llc_wq_size 32
llc_pq_size 32
llc_mshr_size 64
llc_latency 20

dram_channel_width 8
dram_wq_size 64
dram_rq_size 64
tRP 15
tRCD 15
tCAS 12.5
dram_dbus_turn_around_time 30
dram_write_high_wm 56
dram_write_low_wm 48
min_dram_writes_per_switch 16
dram_mtps 2400
dram_dbus_return_time 13


Heartbeat CPU  0 instructions:    1000002 cycles:     759032 heartbeat IPC: 1.31747 cumulative IPC: 1.31747 (Simulation time: 0 hr 0 min 2 sec) 
Heartbeat CPU  0 instructions:    2000001 cycles:    1400643 heartbeat IPC: 1.55858 cumulative IPC: 1.42792 (Simulation time: 0 hr 0 min 3 sec) 
Heartbeat CPU  0 instructions:    3000001 cycles:    2125541 heartbeat IPC: 1.37950 cumulative IPC: 1.41141 (Simulation time: 0 hr 0 min 4 sec) 
Heartbeat CPU  0 instructions:    4000000 cycles:    2666905 heartbeat IPC: 1.84718 cumulative IPC: 1.49987 (Simulation time: 0 hr 0 min 5 sec) 
Heartbeat CPU  0 instructions:    5000000 cycles:    3573552 heartbeat IPC: 1.10297 cumulative IPC: 1.39917 (Simulation time: 0 hr 0 min 6 sec) 
Heartbeat CPU  0 instructions:    6000001 cycles:    4463363 heartbeat IPC: 1.12384 cumulative IPC: 1.34428 (Simulation time: 0 hr 0 min 8 sec) 
Heartbeat CPU  0 instructions:    7000000 cycles:    5260502 heartbeat IPC: 1.25449 cumulative IPC: 1.33067 (Simulation time: 0 hr 0 min 9 sec) 
Heartbeat CPU  0 instructions:    8000000 cycles:    5951359 heartbeat IPC: 1.44748 cumulative IPC: 1.34423 (Simulation time: 0 hr 0 min 10 sec) 
Heartbeat CPU  0 instructions:    9000001 cycles:    6567309 heartbeat IPC: 1.62351 cumulative IPC: 1.37042 (Simulation time: 0 hr 0 min 11 sec) 
Heartbeat CPU  0 instructions:   10000000 cycles:    7109414 heartbeat IPC: 1.84466 cumulative IPC: 1.40659 (Simulation time: 0 hr 0 min 12 sec) 
Heartbeat CPU  0 instructions:   11000001 cycles:    7701440 heartbeat IPC: 1.68912 cumulative IPC: 1.42830 (Simulation time: 0 hr 0 min 13 sec) 
Heartbeat CPU  0 instructions:   12000000 cycles:    8378358 heartbeat IPC: 1.47728 cumulative IPC: 1.43226 (Simulation time: 0 hr 0 min 14 sec) 
Heartbeat CPU  0 instructions:   13000000 cycles:    9258514 heartbeat IPC: 1.13616 cumulative IPC: 1.40411 (Simulation time: 0 hr 0 min 15 sec) 
Heartbeat CPU  0 instructions:   14000002 cycles:   10006239 heartbeat IPC: 1.33739 cumulative IPC: 1.39913 (Simulation time: 0 hr 0 min 16 sec) 
Heartbeat CPU  0 instructions:   15000002 cycles:   10606982 heartbeat IPC: 1.66461 cumulative IPC: 1.41416 (Simulation time: 0 hr 0 min 17 sec) 
Heartbeat CPU  0 instructions:   16000000 cycles:   11134539 heartbeat IPC: 1.89553 cumulative IPC: 1.43697 (Simulation time: 0 hr 0 min 18 sec) 
Heartbeat CPU  0 instructions:   17000000 cycles:   11945836 heartbeat IPC: 1.23259 cumulative IPC: 1.42309 (Simulation time: 0 hr 0 min 19 sec) 
Heartbeat CPU  0 instructions:   18000001 cycles:   12549437 heartbeat IPC: 1.65673 cumulative IPC: 1.43433 (Simulation time: 0 hr 0 min 21 sec) 
Heartbeat CPU  0 instructions:   19000001 cycles:   13085103 heartbeat IPC: 1.86683 cumulative IPC: 1.45203 (Simulation time: 0 hr 0 min 22 sec) 
Heartbeat CPU  0 instructions:   20000000 cycles:   13681334 heartbeat IPC: 1.67720 cumulative IPC: 1.46185 (Simulation time: 0 hr 0 min 23 sec) 
Heartbeat CPU  0 instructions:   21000001 cycles:   14339230 heartbeat IPC: 1.52000 cumulative IPC: 1.46451 (Simulation time: 0 hr 0 min 24 sec) 
Heartbeat CPU  0 instructions:   22000003 cycles:   15217397 heartbeat IPC: 1.13874 cumulative IPC: 1.44571 (Simulation time: 0 hr 0 min 25 sec) 
Heartbeat CPU  0 instructions:   23000001 cycles:   15983623 heartbeat IPC: 1.30510 cumulative IPC: 1.43897 (Simulation time: 0 hr 0 min 25 sec) 
Heartbeat CPU  0 instructions:   24000000 cycles:   16581438 heartbeat IPC: 1.67276 cumulative IPC: 1.44740 (Simulation time: 0 hr 0 min 26 sec) 
Heartbeat CPU  0 instructions:   25000000 cycles:   17123039 heartbeat IPC: 1.84638 cumulative IPC: 1.46002 (Simulation time: 0 hr 0 min 27 sec) 
Heartbeat CPU  0 instructions:   26000001 cycles:   17922160 heartbeat IPC: 1.25138 cumulative IPC: 1.45072 (Simulation time: 0 hr 0 min 29 sec) 
Heartbeat CPU  0 instructions:   27000003 cycles:   18494684 heartbeat IPC: 1.74666 cumulative IPC: 1.45988 (Simulation time: 0 hr 0 min 30 sec) 
Heartbeat CPU  0 instructions:   28000000 cycles:   19047533 heartbeat IPC: 1.80881 cumulative IPC: 1.47001 (Simulation time: 0 hr 0 min 31 sec) 
Heartbeat CPU  0 instructions:   29000002 cycles:   19602640 heartbeat IPC: 1.80146 cumulative IPC: 1.47939 (Simulation time: 0 hr 0 min 32 sec) 
Heartbeat CPU  0 instructions:   30000001 cycles:   20189442 heartbeat IPC: 1.70415 cumulative IPC: 1.48593 (Simulation time: 0 hr 0 min 33 sec) 
Heartbeat CPU  0 instructions:   31000002 cycles:   21057747 heartbeat IPC: 1.15167 cumulative IPC: 1.47214 (Simulation time: 0 hr 0 min 34 sec) 
Heartbeat CPU  0 instructions:   32000000 cycles:   21877920 heartbeat IPC: 1.21925 cumulative IPC: 1.46266 (Simulation time: 0 hr 0 min 35 sec) 
Heartbeat CPU  0 instructions:   33000000 cycles:   22475425 heartbeat IPC: 1.67363 cumulative IPC: 1.46827 (Simulation time: 0 hr 0 min 36 sec) 
Heartbeat CPU  0 instructions:   34000000 cycles:   23091880 heartbeat IPC: 1.62218 cumulative IPC: 1.47238 (Simulation time: 0 hr 0 min 37 sec) 
Heartbeat CPU  0 instructions:   35000000 cycles:   23816401 heartbeat IPC: 1.38022 cumulative IPC: 1.46958 (Simulation time: 0 hr 0 min 38 sec) 
Heartbeat CPU  0 instructions:   36000000 cycles:   24419278 heartbeat IPC: 1.65871 cumulative IPC: 1.47425 (Simulation time: 0 hr 0 min 39 sec) 
Heartbeat CPU  0 instructions:   37000001 cycles:   24955296 heartbeat IPC: 1.86561 cumulative IPC: 1.48265 (Simulation time: 0 hr 0 min 40 sec) 
Heartbeat CPU  0 instructions:   38000002 cycles:   25521135 heartbeat IPC: 1.76729 cumulative IPC: 1.48896 (Simulation time: 0 hr 0 min 41 sec) 
Heartbeat CPU  0 instructions:   39000000 cycles:   26101067 heartbeat IPC: 1.72434 cumulative IPC: 1.49419 (Simulation time: 0 hr 0 min 42 sec) 
Heartbeat CPU  0 instructions:   40000000 cycles:   26875904 heartbeat IPC: 1.29059 cumulative IPC: 1.48832 (Simulation time: 0 hr 0 min 43 sec) 
Heartbeat CPU  0 instructions:   41000001 cycles:   27741212 heartbeat IPC: 1.15566 cumulative IPC: 1.47795 (Simulation time: 0 hr 0 min 44 sec) 
Heartbeat CPU  0 instructions:   42000001 cycles:   28391876 heartbeat IPC: 1.53689 cumulative IPC: 1.47930 (Simulation time: 0 hr 0 min 45 sec) 
Heartbeat CPU  0 instructions:   43000000 cycles:   29029727 heartbeat IPC: 1.56776 cumulative IPC: 1.48124 (Simulation time: 0 hr 0 min 46 sec) 
Heartbeat CPU  0 instructions:   44000000 cycles:   29655007 heartbeat IPC: 1.59928 cumulative IPC: 1.48373 (Simulation time: 0 hr 0 min 47 sec) 
Heartbeat CPU  0 instructions:   45000000 cycles:   30384412 heartbeat IPC: 1.37098 cumulative IPC: 1.48102 (Simulation time: 0 hr 0 min 48 sec) 
Heartbeat CPU  0 instructions:   46000001 cycles:   30920285 heartbeat IPC: 1.86612 cumulative IPC: 1.48770 (Simulation time: 0 hr 0 min 50 sec) 
Heartbeat CPU  0 instructions:   47000000 cycles:   31477917 heartbeat IPC: 1.79330 cumulative IPC: 1.49311 (Simulation time: 0 hr 0 min 51 sec) 
Heartbeat CPU  0 instructions:   48000000 cycles:   32063456 heartbeat IPC: 1.70783 cumulative IPC: 1.49703 (Simulation time: 0 hr 0 min 52 sec) 
Heartbeat CPU  0 instructions:   49000001 cycles:   32802986 heartbeat IPC: 1.35221 cumulative IPC: 1.49377 (Simulation time: 0 hr 0 min 53 sec) 
Heartbeat CPU  0 instructions:   50000001 cycles:   33670444 heartbeat IPC: 1.15279 cumulative IPC: 1.48498 (Simulation time: 0 hr 0 min 53 sec) 
Heartbeat CPU  0 instructions:   51000003 cycles:   34363982 heartbeat IPC: 1.44188 cumulative IPC: 1.48411 (Simulation time: 0 hr 0 min 54 sec) 
Heartbeat CPU  0 instructions:   52000000 cycles:   34968756 heartbeat IPC: 1.65351 cumulative IPC: 1.48704 (Simulation time: 0 hr 0 min 55 sec) 
Heartbeat CPU  0 instructions:   53000000 cycles:   35547167 heartbeat IPC: 1.72887 cumulative IPC: 1.49098 (Simulation time: 0 hr 0 min 56 sec) 
Heartbeat CPU  0 instructions:   54000002 cycles:   36311907 heartbeat IPC: 1.30764 cumulative IPC: 1.48712 (Simulation time: 0 hr 0 min 58 sec) 
Heartbeat CPU  0 instructions:   55000001 cycles:   36882421 heartbeat IPC: 1.75280 cumulative IPC: 1.49123 (Simulation time: 0 hr 0 min 59 sec) 
Heartbeat CPU  0 instructions:   56000000 cycles:   37433469 heartbeat IPC: 1.81472 cumulative IPC: 1.49599 (Simulation time: 0 hr 1 min 0 sec) 
Heartbeat CPU  0 instructions:   57000002 cycles:   38020700 heartbeat IPC: 1.70291 cumulative IPC: 1.49918 (Simulation time: 0 hr 1 min 1 sec) 
Heartbeat CPU  0 instructions:   58000001 cycles:   38753510 heartbeat IPC: 1.36461 cumulative IPC: 1.49664 (Simulation time: 0 hr 1 min 2 sec) 
Heartbeat CPU  0 instructions:   59000001 cycles:   39623196 heartbeat IPC: 1.14984 cumulative IPC: 1.48903 (Simulation time: 0 hr 1 min 3 sec) 
Heartbeat CPU  0 instructions:   60000000 cycles:   40342023 heartbeat IPC: 1.39115 cumulative IPC: 1.48728 (Simulation time: 0 hr 1 min 3 sec) 
Heartbeat CPU  0 instructions:   61000003 cycles:   40956296 heartbeat IPC: 1.62795 cumulative IPC: 1.48939 (Simulation time: 0 hr 1 min 4 sec) 
Heartbeat CPU  0 instructions:   62000001 cycles:   41525056 heartbeat IPC: 1.75821 cumulative IPC: 1.49307 (Simulation time: 0 hr 1 min 5 sec) 
Heartbeat CPU  0 instructions:   63000000 cycles:   42317097 heartbeat IPC: 1.26256 cumulative IPC: 1.48876 (Simulation time: 0 hr 1 min 7 sec) 
Heartbeat CPU  0 instructions:   64000000 cycles:   42904101 heartbeat IPC: 1.70357 cumulative IPC: 1.49170 (Simulation time: 0 hr 1 min 8 sec) 
Heartbeat CPU  0 instructions:   65000003 cycles:   43451064 heartbeat IPC: 1.82828 cumulative IPC: 1.49594 (Simulation time: 0 hr 1 min 9 sec) 
Heartbeat CPU  0 instructions:   66000002 cycles:   44038696 heartbeat IPC: 1.70174 cumulative IPC: 1.49868 (Simulation time: 0 hr 1 min 10 sec) 
Heartbeat CPU  0 instructions:   67000000 cycles:   44726684 heartbeat IPC: 1.45351 cumulative IPC: 1.49799 (Simulation time: 0 hr 1 min 11 sec) 
Heartbeat CPU  0 instructions:   68000000 cycles:   45601852 heartbeat IPC: 1.14264 cumulative IPC: 1.49117 (Simulation time: 0 hr 1 min 12 sec) 
Heartbeat CPU  0 instructions:   69000001 cycles:   46352941 heartbeat IPC: 1.33140 cumulative IPC: 1.48858 (Simulation time: 0 hr 1 min 13 sec) 
Heartbeat CPU  0 instructions:   70000000 cycles:   46966180 heartbeat IPC: 1.63068 cumulative IPC: 1.49043 (Simulation time: 0 hr 1 min 14 sec) 
Heartbeat CPU  0 instructions:   71000002 cycles:   47498083 heartbeat IPC: 1.88005 cumulative IPC: 1.49480 (Simulation time: 0 hr 1 min 15 sec) 
Heartbeat CPU  0 instructions:   72000000 cycles:   48304587 heartbeat IPC: 1.23992 cumulative IPC: 1.49054 (Simulation time: 0 hr 1 min 16 sec) 
Heartbeat CPU  0 instructions:   73000001 cycles:   48898734 heartbeat IPC: 1.68309 cumulative IPC: 1.49288 (Simulation time: 0 hr 1 min 18 sec) 
Heartbeat CPU  0 instructions:   74000002 cycles:   49438720 heartbeat IPC: 1.85190 cumulative IPC: 1.49680 (Simulation time: 0 hr 1 min 18 sec) 
Heartbeat CPU  0 instructions:   75000003 cycles:   50035212 heartbeat IPC: 1.67647 cumulative IPC: 1.49894 (Simulation time: 0 hr 1 min 20 sec) 
Heartbeat CPU  0 instructions:   76000000 cycles:   50688565 heartbeat IPC: 1.53056 cumulative IPC: 1.49935 (Simulation time: 0 hr 1 min 21 sec) 
Heartbeat CPU  0 instructions:   77000001 cycles:   51560948 heartbeat IPC: 1.14629 cumulative IPC: 1.49338 (Simulation time: 0 hr 1 min 21 sec) 
Heartbeat CPU  0 instructions:   78000001 cycles:   52334077 heartbeat IPC: 1.29345 cumulative IPC: 1.49042 (Simulation time: 0 hr 1 min 22 sec) 
Heartbeat CPU  0 instructions:   79000003 cycles:   52946465 heartbeat IPC: 1.63295 cumulative IPC: 1.49207 (Simulation time: 0 hr 1 min 23 sec) 
Heartbeat CPU  0 instructions:   80000000 cycles:   53511064 heartbeat IPC: 1.77116 cumulative IPC: 1.49502 (Simulation time: 0 hr 1 min 24 sec) 
Heartbeat CPU  0 instructions:   81000001 cycles:   54298851 heartbeat IPC: 1.26938 cumulative IPC: 1.49174 (Simulation time: 0 hr 1 min 25 sec) 
Heartbeat CPU  0 instructions:   82000002 cycles:   54908343 heartbeat IPC: 1.64071 cumulative IPC: 1.49340 (Simulation time: 0 hr 1 min 27 sec) 
Heartbeat CPU  0 instructions:   83000003 cycles:   55465132 heartbeat IPC: 1.79601 cumulative IPC: 1.49644 (Simulation time: 0 hr 1 min 28 sec) 
Heartbeat CPU  0 instructions:   84000000 cycles:   56018241 heartbeat IPC: 1.80796 cumulative IPC: 1.49951 (Simulation time: 0 hr 1 min 29 sec) 
Heartbeat CPU  0 instructions:   85000001 cycles:   56604487 heartbeat IPC: 1.70577 cumulative IPC: 1.50165 (Simulation time: 0 hr 1 min 30 sec) 
Heartbeat CPU  0 instructions:   86000000 cycles:   57476319 heartbeat IPC: 1.14701 cumulative IPC: 1.49627 (Simulation time: 0 hr 1 min 31 sec) 
Heartbeat CPU  0 instructions:   87000000 cycles:   58302512 heartbeat IPC: 1.21037 cumulative IPC: 1.49222 (Simulation time: 0 hr 1 min 31 sec) 
Heartbeat CPU  0 instructions:   88000000 cycles:   58920203 heartbeat IPC: 1.61893 cumulative IPC: 1.49355 (Simulation time: 0 hr 1 min 32 sec) 
Heartbeat CPU  0 instructions:   89000003 cycles:   59560010 heartbeat IPC: 1.56298 cumulative IPC: 1.49429 (Simulation time: 0 hr 1 min 33 sec) 
Heartbeat CPU  0 instructions:   90000003 cycles:   60254614 heartbeat IPC: 1.43967 cumulative IPC: 1.49366 (Simulation time: 0 hr 1 min 34 sec) 
Heartbeat CPU  0 instructions:   91000001 cycles:   60926017 heartbeat IPC: 1.48942 cumulative IPC: 1.49361 (Simulation time: 0 hr 1 min 36 sec) 
Heartbeat CPU  0 instructions:   92000000 cycles:   61494444 heartbeat IPC: 1.75924 cumulative IPC: 1.49607 (Simulation time: 0 hr 1 min 37 sec) 
Heartbeat CPU  0 instructions:   93000001 cycles:   62039233 heartbeat IPC: 1.83557 cumulative IPC: 1.49905 (Simulation time: 0 hr 1 min 38 sec) 
Heartbeat CPU  0 instructions:   94000003 cycles:   62626850 heartbeat IPC: 1.70179 cumulative IPC: 1.50095 (Simulation time: 0 hr 1 min 39 sec) 
Heartbeat CPU  0 instructions:   95000003 cycles:   63463141 heartbeat IPC: 1.19576 cumulative IPC: 1.49693 (Simulation time: 0 hr 1 min 40 sec) 
Heartbeat CPU  0 instructions:   96000000 cycles:   64310174 heartbeat IPC: 1.18059 cumulative IPC: 1.49277 (Simulation time: 0 hr 1 min 41 sec) 
Heartbeat CPU  0 instructions:   97000002 cycles:   64944049 heartbeat IPC: 1.57760 cumulative IPC: 1.49359 (Simulation time: 0 hr 1 min 42 sec) 
Heartbeat CPU  0 instructions:   98000003 cycles:   65588450 heartbeat IPC: 1.55183 cumulative IPC: 1.49417 (Simulation time: 0 hr 1 min 43 sec) 
Heartbeat CPU  0 instructions:   99000002 cycles:   66241165 heartbeat IPC: 1.53206 cumulative IPC: 1.49454 (Simulation time: 0 hr 1 min 44 sec) 
Heartbeat CPU  0 instructions:  100000000 cycles:   66826257 heartbeat IPC: 1.70913 cumulative IPC: 1.49642 (Simulation time: 0 hr 1 min 45 sec) 

Warmup complete CPU  0 instructions:  100000002 cycles:   66826259 (Simulation time: 0 hr 1 min 45 sec) 

Heartbeat CPU  0 instructions:  101000001 cycles:   73855139 heartbeat IPC: 0.14227 cumulative IPC: 0.14227 (Simulation time: 0 hr 1 min 47 sec) 
Heartbeat CPU  0 instructions:  102000001 cycles:   78290142 heartbeat IPC: 0.22548 cumulative IPC: 0.17446 (Simulation time: 0 hr 1 min 50 sec) 
Heartbeat CPU  0 instructions:  103000001 cycles:   82762165 heartbeat IPC: 0.22361 cumulative IPC: 0.18825 (Simulation time: 0 hr 1 min 53 sec) 
Heartbeat CPU  0 instructions:  104000000 cycles:   87914785 heartbeat IPC: 0.19408 cumulative IPC: 0.18968 (Simulation time: 0 hr 1 min 55 sec) 
Heartbeat CPU  0 instructions:  105000003 cycles:   92000759 heartbeat IPC: 0.24474 cumulative IPC: 0.19861 (Simulation time: 0 hr 1 min 57 sec) 
Heartbeat CPU  0 instructions:  106000001 cycles:   95775465 heartbeat IPC: 0.26492 cumulative IPC: 0.20726 (Simulation time: 0 hr 2 min 0 sec) 
Heartbeat CPU  0 instructions:  107000003 cycles:  100028940 heartbeat IPC: 0.23510 cumulative IPC: 0.21083 (Simulation time: 0 hr 2 min 2 sec) 
Heartbeat CPU  0 instructions:  108000000 cycles:  103962505 heartbeat IPC: 0.25422 cumulative IPC: 0.21542 (Simulation time: 0 hr 2 min 4 sec) 
Heartbeat CPU  0 instructions:  109000000 cycles:  107893518 heartbeat IPC: 0.25439 cumulative IPC: 0.21915 (Simulation time: 0 hr 2 min 6 sec) 
Heartbeat CPU  0 instructions:  110000001 cycles:  110414725 heartbeat IPC: 0.39664 cumulative IPC: 0.22942 (Simulation time: 0 hr 2 min 7 sec) 
Heartbeat CPU  0 instructions:  111000003 cycles:  113544571 heartbeat IPC: 0.31951 cumulative IPC: 0.23545 (Simulation time: 0 hr 2 min 9 sec) 
Heartbeat CPU  0 instructions:  112000000 cycles:  115514331 heartbeat IPC: 0.50767 cumulative IPC: 0.24647 (Simulation time: 0 hr 2 min 11 sec) 
Heartbeat CPU  0 instructions:  113000002 cycles:  117225590 heartbeat IPC: 0.58437 cumulative IPC: 0.25794 (Simulation time: 0 hr 2 min 13 sec) 
Heartbeat CPU  0 instructions:  114000001 cycles:  118629608 heartbeat IPC: 0.71224 cumulative IPC: 0.27025 (Simulation time: 0 hr 2 min 14 sec) 
Heartbeat CPU  0 instructions:  115000000 cycles:  120567444 heartbeat IPC: 0.51604 cumulative IPC: 0.27912 (Simulation time: 0 hr 2 min 16 sec) 
Heartbeat CPU  0 instructions:  116000000 cycles:  124330828 heartbeat IPC: 0.26572 cumulative IPC: 0.27824 (Simulation time: 0 hr 2 min 18 sec) 
Heartbeat CPU  0 instructions:  117000000 cycles:  127461715 heartbeat IPC: 0.31940 cumulative IPC: 0.28036 (Simulation time: 0 hr 2 min 20 sec) 
Heartbeat CPU  0 instructions:  118000000 cycles:  129167908 heartbeat IPC: 0.58610 cumulative IPC: 0.28873 (Simulation time: 0 hr 2 min 22 sec) 
Heartbeat CPU  0 instructions:  119000000 cycles:  131601169 heartbeat IPC: 0.41097 cumulative IPC: 0.29332 (Simulation time: 0 hr 2 min 24 sec) 
Heartbeat CPU  0 instructions:  120000000 cycles:  133457806 heartbeat IPC: 0.53861 cumulative IPC: 0.30016 (Simulation time: 0 hr 2 min 25 sec) 
Heartbeat CPU  0 instructions:  121000001 cycles:  137729359 heartbeat IPC: 0.23411 cumulative IPC: 0.29618 (Simulation time: 0 hr 2 min 28 sec) 
Heartbeat CPU  0 instructions:  122000001 cycles:  140966553 heartbeat IPC: 0.30891 cumulative IPC: 0.29673 (Simulation time: 0 hr 2 min 30 sec) 
Heartbeat CPU  0 instructions:  123000000 cycles:  142687621 heartbeat IPC: 0.58103 cumulative IPC: 0.30318 (Simulation time: 0 hr 2 min 31 sec) 
Heartbeat CPU  0 instructions:  124000000 cycles:  144099493 heartbeat IPC: 0.70828 cumulative IPC: 0.31059 (Simulation time: 0 hr 2 min 32 sec) 
Heartbeat CPU  0 instructions:  125000000 cycles:  147357883 heartbeat IPC: 0.30690 cumulative IPC: 0.31044 (Simulation time: 0 hr 2 min 33 sec) 
Heartbeat CPU  0 instructions:  126000000 cycles:  150111431 heartbeat IPC: 0.36317 cumulative IPC: 0.31218 (Simulation time: 0 hr 2 min 35 sec) 
Heartbeat CPU  0 instructions:  127000002 cycles:  153583320 heartbeat IPC: 0.28803 cumulative IPC: 0.31121 (Simulation time: 0 hr 2 min 38 sec) 
Heartbeat CPU  0 instructions:  128000000 cycles:  155947465 heartbeat IPC: 0.42299 cumulative IPC: 0.31418 (Simulation time: 0 hr 2 min 39 sec) 
Heartbeat CPU  0 instructions:  129000001 cycles:  157872134 heartbeat IPC: 0.51957 cumulative IPC: 0.31852 (Simulation time: 0 hr 2 min 41 sec) 
Heartbeat CPU  0 instructions:  130000000 cycles:  162373387 heartbeat IPC: 0.22216 cumulative IPC: 0.31398 (Simulation time: 0 hr 2 min 43 sec) 
Heartbeat CPU  0 instructions:  131000000 cycles:  164283073 heartbeat IPC: 0.52365 cumulative IPC: 0.31809 (Simulation time: 0 hr 2 min 44 sec) 
Heartbeat CPU  0 instructions:  132000000 cycles:  165904357 heartbeat IPC: 0.61680 cumulative IPC: 0.32298 (Simulation time: 0 hr 2 min 45 sec) 
Heartbeat CPU  0 instructions:  133000000 cycles:  167844239 heartbeat IPC: 0.51550 cumulative IPC: 0.32667 (Simulation time: 0 hr 2 min 47 sec) 
Heartbeat CPU  0 instructions:  134000000 cycles:  171036309 heartbeat IPC: 0.31328 cumulative IPC: 0.32626 (Simulation time: 0 hr 2 min 48 sec) 
Heartbeat CPU  0 instructions:  135000002 cycles:  174962700 heartbeat IPC: 0.25469 cumulative IPC: 0.32367 (Simulation time: 0 hr 2 min 51 sec) 
Heartbeat CPU  0 instructions:  136000000 cycles:  176713727 heartbeat IPC: 0.57109 cumulative IPC: 0.32761 (Simulation time: 0 hr 2 min 53 sec) 
Heartbeat CPU  0 instructions:  137000000 cycles:  179000293 heartbeat IPC: 0.43734 cumulative IPC: 0.32984 (Simulation time: 0 hr 2 min 54 sec) 
Heartbeat CPU  0 instructions:  138000002 cycles:  181671285 heartbeat IPC: 0.37439 cumulative IPC: 0.33088 (Simulation time: 0 hr 2 min 56 sec) 
Heartbeat CPU  0 instructions:  139000000 cycles:  185716290 heartbeat IPC: 0.24722 cumulative IPC: 0.32803 (Simulation time: 0 hr 2 min 59 sec) 
Heartbeat CPU  0 instructions:  140000000 cycles:  187460889 heartbeat IPC: 0.57320 cumulative IPC: 0.33158 (Simulation time: 0 hr 2 min 59 sec) 
Heartbeat CPU  0 instructions:  141000000 cycles:  188992081 heartbeat IPC: 0.65309 cumulative IPC: 0.33561 (Simulation time: 0 hr 3 min 0 sec) 
Heartbeat CPU  0 instructions:  142000000 cycles:  191439542 heartbeat IPC: 0.40859 cumulative IPC: 0.33704 (Simulation time: 0 hr 3 min 2 sec) 
Heartbeat CPU  0 instructions:  143000000 cycles:  194106788 heartbeat IPC: 0.37492 cumulative IPC: 0.33784 (Simulation time: 0 hr 3 min 4 sec) 
Heartbeat CPU  0 instructions:  144000000 cycles:  198298596 heartbeat IPC: 0.23856 cumulative IPC: 0.33467 (Simulation time: 0 hr 3 min 6 sec) 
Heartbeat CPU  0 instructions:  145000002 cycles:  200048403 heartbeat IPC: 0.57149 cumulative IPC: 0.33778 (Simulation time: 0 hr 3 min 8 sec) 
Heartbeat CPU  0 instructions:  146000003 cycles:  201994839 heartbeat IPC: 0.51376 cumulative IPC: 0.34032 (Simulation time: 0 hr 3 min 9 sec) 
Heartbeat CPU  0 instructions:  147000002 cycles:  205468532 heartbeat IPC: 0.28788 cumulative IPC: 0.33900 (Simulation time: 0 hr 3 min 11 sec) 
Heartbeat CPU  0 instructions:  148000000 cycles:  208872098 heartbeat IPC: 0.29381 cumulative IPC: 0.33792 (Simulation time: 0 hr 3 min 13 sec) 
Heartbeat CPU  0 instructions:  149000000 cycles:  210613070 heartbeat IPC: 0.57439 cumulative IPC: 0.34078 (Simulation time: 0 hr 3 min 14 sec) 
Heartbeat CPU  0 instructions:  150000002 cycles:  212065403 heartbeat IPC: 0.68855 cumulative IPC: 0.34426 (Simulation time: 0 hr 3 min 15 sec) 
Heartbeat CPU  0 instructions:  151000000 cycles:  215010767 heartbeat IPC: 0.33952 cumulative IPC: 0.34417 (Simulation time: 0 hr 3 min 17 sec) 
Heartbeat CPU  0 instructions:  152000000 cycles:  217568576 heartbeat IPC: 0.39096 cumulative IPC: 0.34496 (Simulation time: 0 hr 3 min 19 sec) 
Heartbeat CPU  0 instructions:  153000000 cycles:  221256685 heartbeat IPC: 0.27114 cumulative IPC: 0.34320 (Simulation time: 0 hr 3 min 21 sec) 
Heartbeat CPU  0 instructions:  154000002 cycles:  223491958 heartbeat IPC: 0.44737 cumulative IPC: 0.34468 (Simulation time: 0 hr 3 min 22 sec) 
Heartbeat CPU  0 instructions:  155000002 cycles:  225034541 heartbeat IPC: 0.64826 cumulative IPC: 0.34764 (Simulation time: 0 hr 3 min 24 sec) 
Heartbeat CPU  0 instructions:  156000000 cycles:  229088439 heartbeat IPC: 0.24668 cumulative IPC: 0.34512 (Simulation time: 0 hr 3 min 26 sec) 
Heartbeat CPU  0 instructions:  157000000 cycles:  232051536 heartbeat IPC: 0.33748 cumulative IPC: 0.34498 (Simulation time: 0 hr 3 min 28 sec) 
Heartbeat CPU  0 instructions:  158000003 cycles:  233766770 heartbeat IPC: 0.58301 cumulative IPC: 0.34743 (Simulation time: 0 hr 3 min 29 sec) 
Heartbeat CPU  0 instructions:  159000000 cycles:  235125937 heartbeat IPC: 0.73574 cumulative IPC: 0.35057 (Simulation time: 0 hr 3 min 30 sec) 
Heartbeat CPU  0 instructions:  160000000 cycles:  238795598 heartbeat IPC: 0.27250 cumulative IPC: 0.34890 (Simulation time: 0 hr 3 min 32 sec) 
Heartbeat CPU  0 instructions:  161000003 cycles:  241649366 heartbeat IPC: 0.35041 cumulative IPC: 0.34892 (Simulation time: 0 hr 3 min 34 sec) 
Heartbeat CPU  0 instructions:  162000001 cycles:  244576617 heartbeat IPC: 0.34162 cumulative IPC: 0.34880 (Simulation time: 0 hr 3 min 36 sec) 
Heartbeat CPU  0 instructions:  163000000 cycles:  246959138 heartbeat IPC: 0.41972 cumulative IPC: 0.34974 (Simulation time: 0 hr 3 min 38 sec) 
Heartbeat CPU  0 instructions:  164000000 cycles:  248869255 heartbeat IPC: 0.52353 cumulative IPC: 0.35157 (Simulation time: 0 hr 3 min 39 sec) 
Heartbeat CPU  0 instructions:  165000003 cycles:  253307062 heartbeat IPC: 0.22534 cumulative IPC: 0.34856 (Simulation time: 0 hr 3 min 42 sec) 
Heartbeat CPU  0 instructions:  166000000 cycles:  255279786 heartbeat IPC: 0.50691 cumulative IPC: 0.35022 (Simulation time: 0 hr 3 min 43 sec) 
Heartbeat CPU  0 instructions:  167000001 cycles:  256905789 heartbeat IPC: 0.61501 cumulative IPC: 0.35248 (Simulation time: 0 hr 3 min 44 sec) 
Heartbeat CPU  0 instructions:  168000000 cycles:  258826979 heartbeat IPC: 0.52051 cumulative IPC: 0.35417 (Simulation time: 0 hr 3 min 45 sec) 
Heartbeat CPU  0 instructions:  169000001 cycles:  262003841 heartbeat IPC: 0.31478 cumulative IPC: 0.35352 (Simulation time: 0 hr 3 min 47 sec) 
Heartbeat CPU  0 instructions:  170000002 cycles:  265959971 heartbeat IPC: 0.25277 cumulative IPC: 0.35152 (Simulation time: 0 hr 3 min 49 sec) 
Heartbeat CPU  0 instructions:  171000000 cycles:  267682774 heartbeat IPC: 0.58045 cumulative IPC: 0.35349 (Simulation time: 0 hr 3 min 51 sec) 
Heartbeat CPU  0 instructions:  172000000 cycles:  269993670 heartbeat IPC: 0.43273 cumulative IPC: 0.35439 (Simulation time: 0 hr 3 min 52 sec) 
Heartbeat CPU  0 instructions:  173000000 cycles:  272602060 heartbeat IPC: 0.38338 cumulative IPC: 0.35476 (Simulation time: 0 hr 3 min 54 sec) 
Heartbeat CPU  0 instructions:  174000000 cycles:  276696527 heartbeat IPC: 0.24423 cumulative IPC: 0.35260 (Simulation time: 0 hr 3 min 57 sec) 
Heartbeat CPU  0 instructions:  175000000 cycles:  278442797 heartbeat IPC: 0.57265 cumulative IPC: 0.35441 (Simulation time: 0 hr 3 min 58 sec) 
Heartbeat CPU  0 instructions:  176000000 cycles:  279979717 heartbeat IPC: 0.65065 cumulative IPC: 0.35655 (Simulation time: 0 hr 3 min 59 sec) 
Heartbeat CPU  0 instructions:  177000001 cycles:  282386409 heartbeat IPC: 0.41551 cumulative IPC: 0.35721 (Simulation time: 0 hr 4 min 0 sec) 
Heartbeat CPU  0 instructions:  178000001 cycles:  285118386 heartbeat IPC: 0.36604 cumulative IPC: 0.35732 (Simulation time: 0 hr 4 min 2 sec) 
Heartbeat CPU  0 instructions:  179000003 cycles:  289336844 heartbeat IPC: 0.23705 cumulative IPC: 0.35504 (Simulation time: 0 hr 4 min 4 sec) 
Heartbeat CPU  0 instructions:  180000000 cycles:  291296425 heartbeat IPC: 0.51031 cumulative IPC: 0.35639 (Simulation time: 0 hr 4 min 6 sec) 
Heartbeat CPU  0 instructions:  181000003 cycles:  293002888 heartbeat IPC: 0.58601 cumulative IPC: 0.35813 (Simulation time: 0 hr 4 min 7 sec) 
Heartbeat CPU  0 instructions:  182000000 cycles:  296903140 heartbeat IPC: 0.25639 cumulative IPC: 0.35640 (Simulation time: 0 hr 4 min 10 sec) 
Heartbeat CPU  0 instructions:  183000000 cycles:  299968689 heartbeat IPC: 0.32621 cumulative IPC: 0.35601 (Simulation time: 0 hr 4 min 11 sec) 
Heartbeat CPU  0 instructions:  184000000 cycles:  301682824 heartbeat IPC: 0.58338 cumulative IPC: 0.35767 (Simulation time: 0 hr 4 min 12 sec) 
Heartbeat CPU  0 instructions:  185000002 cycles:  303051656 heartbeat IPC: 0.73055 cumulative IPC: 0.35983 (Simulation time: 0 hr 4 min 13 sec) 
Heartbeat CPU  0 instructions:  186000001 cycles:  306573417 heartbeat IPC: 0.28395 cumulative IPC: 0.35871 (Simulation time: 0 hr 4 min 15 sec) 
Heartbeat CPU  0 instructions:  187000000 cycles:  309403282 heartbeat IPC: 0.35337 cumulative IPC: 0.35865 (Simulation time: 0 hr 4 min 17 sec) 
Heartbeat CPU  0 instructions:  188000000 cycles:  312325370 heartbeat IPC: 0.34222 cumulative IPC: 0.35845 (Simulation time: 0 hr 4 min 19 sec) 
Heartbeat CPU  0 instructions:  189000000 cycles:  314696822 heartbeat IPC: 0.42168 cumulative IPC: 0.35906 (Simulation time: 0 hr 4 min 21 sec) 
Heartbeat CPU  0 instructions:  190000001 cycles:  316296539 heartbeat IPC: 0.62511 cumulative IPC: 0.36076 (Simulation time: 0 hr 4 min 22 sec) 
Heartbeat CPU  0 instructions:  191000002 cycles:  320612584 heartbeat IPC: 0.23169 cumulative IPC: 0.35857 (Simulation time: 0 hr 4 min 25 sec) 
Heartbeat CPU  0 instructions:  192000000 cycles:  323086850 heartbeat IPC: 0.40416 cumulative IPC: 0.35901 (Simulation time: 0 hr 4 min 26 sec) 
Heartbeat CPU  0 instructions:  193000003 cycles:  324759905 heartbeat IPC: 0.59771 cumulative IPC: 0.36056 (Simulation time: 0 hr 4 min 27 sec) 
Heartbeat CPU  0 instructions:  194000001 cycles:  326355049 heartbeat IPC: 0.62690 cumulative IPC: 0.36219 (Simulation time: 0 hr 4 min 28 sec) 
Heartbeat CPU  0 instructions:  195000001 cycles:  329809642 heartbeat IPC: 0.28947 cumulative IPC: 0.36124 (Simulation time: 0 hr 4 min 30 sec) 
Heartbeat CPU  0 instructions:  196000000 cycles:  333307683 heartbeat IPC: 0.28587 cumulative IPC: 0.36025 (Simulation time: 0 hr 4 min 32 sec) 
Heartbeat CPU  0 instructions:  197000000 cycles:  335496197 heartbeat IPC: 0.45693 cumulative IPC: 0.36104 (Simulation time: 0 hr 4 min 34 sec) 
Heartbeat CPU  0 instructions:  198000000 cycles:  337879390 heartbeat IPC: 0.41961 cumulative IPC: 0.36155 (Simulation time: 0 hr 4 min 36 sec) 
Heartbeat CPU  0 instructions:  199000002 cycles:  339962008 heartbeat IPC: 0.48017 cumulative IPC: 0.36246 (Simulation time: 0 hr 4 min 37 sec) 
Heartbeat CPU  0 instructions:  200000000 cycles:  344470975 heartbeat IPC: 0.22178 cumulative IPC: 0.36017 (Simulation time: 0 hr 4 min 40 sec) 
Finished CPU 0 instructions: 100000000 cycles: 277644729 cumulative IPC: 0.36017 (Simulation time: 0 hr 4 min 40 sec) 

ChampSim completed all CPUs

[ROI Statistics]
Core_0_instructions 100000000
Core_0_cycles 277644729
Core_0_IPC 0.36017

Core_0_branch_prediction_accuracy 95.09858
Core_0_branch_MPKI 8.66907
Core_0_average_ROB_occupancy_at_mispredict 84.41646

Core_0_L1D_total_access 20876433
Core_0_L1D_total_hit 15648054
Core_0_L1D_total_miss 5228379
Core_0_L1D_loads 15417045
Core_0_L1D_load_hit 11017247
Core_0_L1D_load_miss 4399798
Core_0_L1D_RFOs 5459388
Core_0_L1D_RFO_hit 4630807
Core_0_L1D_RFO_miss 828581
Core_0_L1D_prefetches 0
Core_0_L1D_prefetch_hit 0
Core_0_L1D_prefetch_miss 0
Core_0_L1D_writebacks 0
Core_0_L1D_writeback_hit 0
Core_0_L1D_writeback_miss 0
Core_0_L1D_prefetch_requested 0
Core_0_L1D_prefetch_issued 0
Core_0_L1D_prefetch_useful 0
Core_0_L1D_prefetch_useless 0
Core_0_L1D_prefetch_late 0
Core_0_L1D_average_miss_latency 105.91272

Core_0_L1I_total_access 20887395
Core_0_L1I_total_hit 20886763
Core_0_L1I_total_miss 632
Core_0_L1I_loads 20887395
Core_0_L1I_load_hit 20886763
Core_0_L1I_load_miss 632
Core_0_L1I_RFOs 0
Core_0_L1I_RFO_hit 0
Core_0_L1I_RFO_miss 0
Core_0_L1I_prefetches 0
Core_0_L1I_prefetch_hit 0
Core_0_L1I_prefetch_miss 0
Core_0_L1I_writebacks 0
Core_0_L1I_writeback_hit 0
Core_0_L1I_writeback_miss 0
Core_0_L1I_prefetch_requested 0
Core_0_L1I_prefetch_issued 0
Core_0_L1I_prefetch_useful 0
Core_0_L1I_prefetch_useless 0
Core_0_L1I_prefetch_late 0
Core_0_L1I_average_miss_latency 258.34019

Core_0_L2C_total_access 10667208
Core_0_L2C_total_hit 6564251
Core_0_L2C_total_miss 4102957
Core_0_L2C_loads 4399786
Core_0_L2C_load_hit 2292694
Core_0_L2C_load_miss 2107092
Core_0_L2C_RFOs 828501
Core_0_L2C_RFO_hit 153486
Core_0_L2C_RFO_miss 675015
Core_0_L2C_prefetches 3058257
Core_0_L2C_prefetch_hit 1737510
Core_0_L2C_prefetch_miss 1320747
Core_0_L2C_writebacks 2380664
Core_0_L2C_writeback_hit 2380561
Core_0_L2C_writeback_miss 103
Core_0_L2C_prefetch_requested 8689164
Core_0_L2C_prefetch_issued 8686597
Core_0_L2C_prefetch_useful 2523478
Core_0_L2C_prefetch_useless 606698
Core_0_L2C_prefetch_late 127775
Core_0_L2C_average_miss_latency 162.20925

Core_0_LLC_total_access 5684802
Core_0_LLC_total_hit 2482843
Core_0_LLC_total_miss 3201959
Core_0_LLC_loads 1985385
Core_0_LLC_load_hit 776053
Core_0_LLC_load_miss 1209332
Core_0_LLC_RFOs 675010
Core_0_LLC_RFO_hit 242376
Core_0_LLC_RFO_miss 432634
Core_0_LLC_prefetches 1445604
Core_0_LLC_prefetch_hit 515970
Core_0_LLC_prefetch_miss 929634
Core_0_LLC_writebacks 1578803
Core_0_LLC_writeback_hit 948444
Core_0_LLC_writeback_miss 630359
Core_0_LLC_prefetch_requested 0
Core_0_LLC_prefetch_issued 0
Core_0_LLC_prefetch_useful 20441
Core_0_LLC_prefetch_useless 2122167
Core_0_LLC_prefetch_late 75
Core_0_LLC_average_miss_latency 172.49745

Core_0_major_page_fault 0
Core_0_minor_page_fault 12935

CPU 0 L2C PC-based stride prefetcher final stats
Channel_0_RQ_row_buffer_hit 794822
Channel_0_RQ_row_buffer_miss 1776307
Channel_0_WQ_row_buffer_hit 300321
Channel_0_WQ_row_buffer_miss 389065
Channel_0_WQ_full 4787
Channel_0_dbus_congested 1479118

avg_congested_cycle 10
