*************************************************
   ChampSim Multicore Out-of-Order Simulator
   Last compiled: Dec 24 2023 18:12:51
*************************************************

trace_0 ./test_trace/450.soplex-247B.champsimtrace.xz
CPU 0 L2C next line prefetcher
Initialize SHIP state
warmup_instructions 100000000
simulation_instructions 100000000
champsim_seed 223

num_cpus 1
cpu_freq 4000
dram_io_freq 2400
page_size 4096
block_size 64
max_read_per_cycle 8
max_fill_per_cycle 1
dram_channels 1
dram_ranks 1
dram_banks 8
dram_rows 65536
dram_columns 128
dram_row_size 8
dram_size 4096
dram_pages 1048576

fetch_width 6
decode_width 6
exec_width 4
lq_width 2
sq_width 2
retire_width 4
scheduler_size 128
branch_mispredict_penalty 20
rob_size 256
lq_size 72
sq_size 56
num_instr_destinations_sparc 4
num_instr_destinations 2
num_instr_sources 4

itlb_set 16
itlb_way 8
itlb_rq_size 16
itlb_wq_size 16
itlb_pq_size 0
itlb_mshr_size 8
itlb_latency 1

dtlb_set 16
dtlb_way 4
dtlb_rq_size 16
dtlb_wq_size 16
dtlb_pq_size 0
dtlb_mshr_size 8
dtlb_latency 1

stlb_set 128
stlb_way 12
stlb_rq_size 32
stlb_wq_size 32
stlb_pq_size 0
stlb_mshr_size 16
stlb_latency 8

l1i_size 32
l1i_set 64
l1i_way 8
l1i_rq_size 64
l1i_wq_size 64
l1i_pq_size 8
l1i_mshr_size 8
l1i_latency 1

l1d_size 32
l1d_set 64
l1d_way 8
l1d_rq_size 64
l1d_wq_size 64
l1d_pq_size 8
l1d_mshr_size 16
l1d_latency 4

l2c_size 512
l2c_set 1024
l2c_way 8
l2c_rq_size 32
l2c_wq_size 32
l2c_pq_size 16
l2c_mshr_size 32
l2c_latency 10

llc_size 2048
llc_set 2048
llc_way 16
llc_rq_size 32
llc_wq_size 32
llc_pq_size 32
llc_mshr_size 64
llc_latency 20

dram_channel_width 8
dram_wq_size 64
dram_rq_size 64
tRP 15
tRCD 15
tCAS 12.5
dram_dbus_turn_around_time 30
dram_write_high_wm 56
dram_write_low_wm 48
min_dram_writes_per_switch 16
dram_mtps 2400
dram_dbus_return_time 13


Heartbeat CPU  0 instructions:    1000002 cycles:     755387 heartbeat IPC: 1.32383 cumulative IPC: 1.32383 (Simulation time: 0 hr 0 min 1 sec) 
Heartbeat CPU  0 instructions:    2000001 cycles:    1396360 heartbeat IPC: 1.56013 cumulative IPC: 1.43230 (Simulation time: 0 hr 0 min 2 sec) 
Heartbeat CPU  0 instructions:    3000001 cycles:    2120930 heartbeat IPC: 1.38013 cumulative IPC: 1.41447 (Simulation time: 0 hr 0 min 4 sec) 
Heartbeat CPU  0 instructions:    4000000 cycles:    2662189 heartbeat IPC: 1.84754 cumulative IPC: 1.50252 (Simulation time: 0 hr 0 min 5 sec) 
Heartbeat CPU  0 instructions:    5000000 cycles:    3568741 heartbeat IPC: 1.10308 cumulative IPC: 1.40105 (Simulation time: 0 hr 0 min 6 sec) 
Heartbeat CPU  0 instructions:    6000001 cycles:    4457959 heartbeat IPC: 1.12458 cumulative IPC: 1.34591 (Simulation time: 0 hr 0 min 7 sec) 
Heartbeat CPU  0 instructions:    7000000 cycles:    5255535 heartbeat IPC: 1.25380 cumulative IPC: 1.33193 (Simulation time: 0 hr 0 min 8 sec) 
Heartbeat CPU  0 instructions:    8000000 cycles:    5946431 heartbeat IPC: 1.44740 cumulative IPC: 1.34534 (Simulation time: 0 hr 0 min 10 sec) 
Heartbeat CPU  0 instructions:    9000001 cycles:    6563751 heartbeat IPC: 1.61991 cumulative IPC: 1.37117 (Simulation time: 0 hr 0 min 11 sec) 
Heartbeat CPU  0 instructions:   10000000 cycles:    7110439 heartbeat IPC: 1.82920 cumulative IPC: 1.40638 (Simulation time: 0 hr 0 min 12 sec) 
Heartbeat CPU  0 instructions:   11000001 cycles:    7702643 heartbeat IPC: 1.68861 cumulative IPC: 1.42808 (Simulation time: 0 hr 0 min 13 sec) 
Heartbeat CPU  0 instructions:   12000000 cycles:    8378504 heartbeat IPC: 1.47959 cumulative IPC: 1.43224 (Simulation time: 0 hr 0 min 14 sec) 
Heartbeat CPU  0 instructions:   13000000 cycles:    9258611 heartbeat IPC: 1.13623 cumulative IPC: 1.40410 (Simulation time: 0 hr 0 min 15 sec) 
Heartbeat CPU  0 instructions:   14000002 cycles:   10006291 heartbeat IPC: 1.33747 cumulative IPC: 1.39912 (Simulation time: 0 hr 0 min 15 sec) 
Heartbeat CPU  0 instructions:   15000000 cycles:   10604179 heartbeat IPC: 1.67255 cumulative IPC: 1.41454 (Simulation time: 0 hr 0 min 16 sec) 
Heartbeat CPU  0 instructions:   16000000 cycles:   11129751 heartbeat IPC: 1.90269 cumulative IPC: 1.43759 (Simulation time: 0 hr 0 min 17 sec) 
Heartbeat CPU  0 instructions:   17000000 cycles:   11939690 heartbeat IPC: 1.23466 cumulative IPC: 1.42382 (Simulation time: 0 hr 0 min 18 sec) 
Heartbeat CPU  0 instructions:   18000001 cycles:   12541546 heartbeat IPC: 1.66153 cumulative IPC: 1.43523 (Simulation time: 0 hr 0 min 20 sec) 
Heartbeat CPU  0 instructions:   19000001 cycles:   13082205 heartbeat IPC: 1.84959 cumulative IPC: 1.45235 (Simulation time: 0 hr 0 min 21 sec) 
Heartbeat CPU  0 instructions:   20000000 cycles:   13678994 heartbeat IPC: 1.67563 cumulative IPC: 1.46210 (Simulation time: 0 hr 0 min 22 sec) 
Heartbeat CPU  0 instructions:   21000001 cycles:   14336053 heartbeat IPC: 1.52193 cumulative IPC: 1.46484 (Simulation time: 0 hr 0 min 23 sec) 
Heartbeat CPU  0 instructions:   22000003 cycles:   15214189 heartbeat IPC: 1.13878 cumulative IPC: 1.44602 (Simulation time: 0 hr 0 min 24 sec) 
Heartbeat CPU  0 instructions:   23000001 cycles:   15980413 heartbeat IPC: 1.30510 cumulative IPC: 1.43926 (Simulation time: 0 hr 0 min 24 sec) 
Heartbeat CPU  0 instructions:   24000000 cycles:   16575375 heartbeat IPC: 1.68078 cumulative IPC: 1.44793 (Simulation time: 0 hr 0 min 25 sec) 
Heartbeat CPU  0 instructions:   25000000 cycles:   17114613 heartbeat IPC: 1.85447 cumulative IPC: 1.46074 (Simulation time: 0 hr 0 min 26 sec) 
Heartbeat CPU  0 instructions:   26000001 cycles:   17913010 heartbeat IPC: 1.25251 cumulative IPC: 1.45146 (Simulation time: 0 hr 0 min 27 sec) 
Heartbeat CPU  0 instructions:   27000003 cycles:   18482193 heartbeat IPC: 1.75691 cumulative IPC: 1.46087 (Simulation time: 0 hr 0 min 29 sec) 
Heartbeat CPU  0 instructions:   28000000 cycles:   19040614 heartbeat IPC: 1.79076 cumulative IPC: 1.47054 (Simulation time: 0 hr 0 min 30 sec) 
Heartbeat CPU  0 instructions:   29000002 cycles:   19596181 heartbeat IPC: 1.79997 cumulative IPC: 1.47988 (Simulation time: 0 hr 0 min 31 sec) 
Heartbeat CPU  0 instructions:   30000001 cycles:   20182794 heartbeat IPC: 1.70470 cumulative IPC: 1.48641 (Simulation time: 0 hr 0 min 32 sec) 
Heartbeat CPU  0 instructions:   31000002 cycles:   21050706 heartbeat IPC: 1.15219 cumulative IPC: 1.47263 (Simulation time: 0 hr 0 min 33 sec) 
Heartbeat CPU  0 instructions:   32000000 cycles:   21870867 heartbeat IPC: 1.21927 cumulative IPC: 1.46313 (Simulation time: 0 hr 0 min 33 sec) 
Heartbeat CPU  0 instructions:   33000000 cycles:   22467289 heartbeat IPC: 1.67667 cumulative IPC: 1.46880 (Simulation time: 0 hr 0 min 34 sec) 
Heartbeat CPU  0 instructions:   34000000 cycles:   23079898 heartbeat IPC: 1.63236 cumulative IPC: 1.47314 (Simulation time: 0 hr 0 min 35 sec) 
Heartbeat CPU  0 instructions:   35000002 cycles:   23804035 heartbeat IPC: 1.38096 cumulative IPC: 1.47034 (Simulation time: 0 hr 0 min 36 sec) 
Heartbeat CPU  0 instructions:   36000000 cycles:   24403335 heartbeat IPC: 1.66861 cumulative IPC: 1.47521 (Simulation time: 0 hr 0 min 38 sec) 
Heartbeat CPU  0 instructions:   37000002 cycles:   24945210 heartbeat IPC: 1.84545 cumulative IPC: 1.48325 (Simulation time: 0 hr 0 min 39 sec) 
Heartbeat CPU  0 instructions:   38000002 cycles:   25511669 heartbeat IPC: 1.76535 cumulative IPC: 1.48951 (Simulation time: 0 hr 0 min 40 sec) 
Heartbeat CPU  0 instructions:   39000000 cycles:   26092155 heartbeat IPC: 1.72269 cumulative IPC: 1.49470 (Simulation time: 0 hr 0 min 41 sec) 
Heartbeat CPU  0 instructions:   40000000 cycles:   26866331 heartbeat IPC: 1.29170 cumulative IPC: 1.48885 (Simulation time: 0 hr 0 min 42 sec) 
Heartbeat CPU  0 instructions:   41000001 cycles:   27731616 heartbeat IPC: 1.15569 cumulative IPC: 1.47846 (Simulation time: 0 hr 0 min 42 sec) 
Heartbeat CPU  0 instructions:   42000001 cycles:   28382277 heartbeat IPC: 1.53690 cumulative IPC: 1.47980 (Simulation time: 0 hr 0 min 43 sec) 
Heartbeat CPU  0 instructions:   43000000 cycles:   29015309 heartbeat IPC: 1.57970 cumulative IPC: 1.48198 (Simulation time: 0 hr 0 min 44 sec) 
Heartbeat CPU  0 instructions:   44000000 cycles:   29640162 heartbeat IPC: 1.60038 cumulative IPC: 1.48447 (Simulation time: 0 hr 0 min 45 sec) 
Heartbeat CPU  0 instructions:   45000000 cycles:   30366326 heartbeat IPC: 1.37710 cumulative IPC: 1.48190 (Simulation time: 0 hr 0 min 47 sec) 
Heartbeat CPU  0 instructions:   46000001 cycles:   30905829 heartbeat IPC: 1.85356 cumulative IPC: 1.48839 (Simulation time: 0 hr 0 min 48 sec) 
Heartbeat CPU  0 instructions:   47000000 cycles:   31465705 heartbeat IPC: 1.78611 cumulative IPC: 1.49369 (Simulation time: 0 hr 0 min 49 sec) 
Heartbeat CPU  0 instructions:   48000000 cycles:   32051344 heartbeat IPC: 1.70754 cumulative IPC: 1.49760 (Simulation time: 0 hr 0 min 50 sec) 
Heartbeat CPU  0 instructions:   49000001 cycles:   32790347 heartbeat IPC: 1.35318 cumulative IPC: 1.49434 (Simulation time: 0 hr 0 min 51 sec) 
Heartbeat CPU  0 instructions:   50000001 cycles:   33657784 heartbeat IPC: 1.15282 cumulative IPC: 1.48554 (Simulation time: 0 hr 0 min 51 sec) 
Heartbeat CPU  0 instructions:   51000003 cycles:   34351314 heartbeat IPC: 1.44190 cumulative IPC: 1.48466 (Simulation time: 0 hr 0 min 52 sec) 
Heartbeat CPU  0 instructions:   52000000 cycles:   34952275 heartbeat IPC: 1.66400 cumulative IPC: 1.48774 (Simulation time: 0 hr 0 min 53 sec) 
Heartbeat CPU  0 instructions:   53000000 cycles:   35529609 heartbeat IPC: 1.73210 cumulative IPC: 1.49171 (Simulation time: 0 hr 0 min 54 sec) 
Heartbeat CPU  0 instructions:   54000002 cycles:   36292324 heartbeat IPC: 1.31111 cumulative IPC: 1.48792 (Simulation time: 0 hr 0 min 55 sec) 
Heartbeat CPU  0 instructions:   55000001 cycles:   36865469 heartbeat IPC: 1.74476 cumulative IPC: 1.49191 (Simulation time: 0 hr 0 min 57 sec) 
Heartbeat CPU  0 instructions:   56000000 cycles:   37418923 heartbeat IPC: 1.80683 cumulative IPC: 1.49657 (Simulation time: 0 hr 0 min 58 sec) 
Heartbeat CPU  0 instructions:   57000002 cycles:   38006514 heartbeat IPC: 1.70187 cumulative IPC: 1.49974 (Simulation time: 0 hr 0 min 59 sec) 
Heartbeat CPU  0 instructions:   58000001 cycles:   38738743 heartbeat IPC: 1.36569 cumulative IPC: 1.49721 (Simulation time: 0 hr 1 min 0 sec) 
Heartbeat CPU  0 instructions:   59000001 cycles:   39608403 heartbeat IPC: 1.14987 cumulative IPC: 1.48958 (Simulation time: 0 hr 1 min 0 sec) 
Heartbeat CPU  0 instructions:   60000000 cycles:   40327221 heartbeat IPC: 1.39117 cumulative IPC: 1.48783 (Simulation time: 0 hr 1 min 1 sec) 
Heartbeat CPU  0 instructions:   61000003 cycles:   40937520 heartbeat IPC: 1.63855 cumulative IPC: 1.49008 (Simulation time: 0 hr 1 min 2 sec) 
Heartbeat CPU  0 instructions:   62000001 cycles:   41504973 heartbeat IPC: 1.76226 cumulative IPC: 1.49380 (Simulation time: 0 hr 1 min 3 sec) 
Heartbeat CPU  0 instructions:   63000000 cycles:   42295313 heartbeat IPC: 1.26528 cumulative IPC: 1.48953 (Simulation time: 0 hr 1 min 4 sec) 
Heartbeat CPU  0 instructions:   64000000 cycles:   42882221 heartbeat IPC: 1.70384 cumulative IPC: 1.49246 (Simulation time: 0 hr 1 min 6 sec) 
Heartbeat CPU  0 instructions:   65000003 cycles:   43433787 heartbeat IPC: 1.81303 cumulative IPC: 1.49653 (Simulation time: 0 hr 1 min 7 sec) 
Heartbeat CPU  0 instructions:   66000003 cycles:   44021824 heartbeat IPC: 1.70057 cumulative IPC: 1.49926 (Simulation time: 0 hr 1 min 8 sec) 
Heartbeat CPU  0 instructions:   67000000 cycles:   44709073 heartbeat IPC: 1.45507 cumulative IPC: 1.49858 (Simulation time: 0 hr 1 min 9 sec) 
Heartbeat CPU  0 instructions:   68000000 cycles:   45584223 heartbeat IPC: 1.14266 cumulative IPC: 1.49174 (Simulation time: 0 hr 1 min 9 sec) 
Heartbeat CPU  0 instructions:   69000001 cycles:   46335310 heartbeat IPC: 1.33141 cumulative IPC: 1.48915 (Simulation time: 0 hr 1 min 10 sec) 
Heartbeat CPU  0 instructions:   70000000 cycles:   46945713 heartbeat IPC: 1.63826 cumulative IPC: 1.49108 (Simulation time: 0 hr 1 min 11 sec) 
Heartbeat CPU  0 instructions:   71000002 cycles:   47475630 heartbeat IPC: 1.88709 cumulative IPC: 1.49550 (Simulation time: 0 hr 1 min 12 sec) 
Heartbeat CPU  0 instructions:   72000000 cycles:   48280925 heartbeat IPC: 1.24178 cumulative IPC: 1.49127 (Simulation time: 0 hr 1 min 13 sec) 
Heartbeat CPU  0 instructions:   73000001 cycles:   48872621 heartbeat IPC: 1.69006 cumulative IPC: 1.49368 (Simulation time: 0 hr 1 min 15 sec) 
Heartbeat CPU  0 instructions:   74000002 cycles:   49418455 heartbeat IPC: 1.83206 cumulative IPC: 1.49742 (Simulation time: 0 hr 1 min 16 sec) 
Heartbeat CPU  0 instructions:   75000003 cycles:   50015519 heartbeat IPC: 1.67486 cumulative IPC: 1.49953 (Simulation time: 0 hr 1 min 17 sec) 
Heartbeat CPU  0 instructions:   76000000 cycles:   50667955 heartbeat IPC: 1.53271 cumulative IPC: 1.49996 (Simulation time: 0 hr 1 min 18 sec) 
Heartbeat CPU  0 instructions:   77000001 cycles:   51540320 heartbeat IPC: 1.14631 cumulative IPC: 1.49398 (Simulation time: 0 hr 1 min 18 sec) 
Heartbeat CPU  0 instructions:   78000001 cycles:   52313444 heartbeat IPC: 1.29345 cumulative IPC: 1.49101 (Simulation time: 0 hr 1 min 19 sec) 
Heartbeat CPU  0 instructions:   79000003 cycles:   52923501 heartbeat IPC: 1.63919 cumulative IPC: 1.49272 (Simulation time: 0 hr 1 min 20 sec) 
Heartbeat CPU  0 instructions:   80000000 cycles:   53485594 heartbeat IPC: 1.77906 cumulative IPC: 1.49573 (Simulation time: 0 hr 1 min 21 sec) 
Heartbeat CPU  0 instructions:   81000001 cycles:   54272745 heartbeat IPC: 1.27041 cumulative IPC: 1.49246 (Simulation time: 0 hr 1 min 22 sec) 
Heartbeat CPU  0 instructions:   82000002 cycles:   54879316 heartbeat IPC: 1.64861 cumulative IPC: 1.49419 (Simulation time: 0 hr 1 min 24 sec) 
Heartbeat CPU  0 instructions:   83000003 cycles:   55442040 heartbeat IPC: 1.77707 cumulative IPC: 1.49706 (Simulation time: 0 hr 1 min 24 sec) 
Heartbeat CPU  0 instructions:   84000000 cycles:   55995732 heartbeat IPC: 1.80605 cumulative IPC: 1.50011 (Simulation time: 0 hr 1 min 26 sec) 
Heartbeat CPU  0 instructions:   85000001 cycles:   56582105 heartbeat IPC: 1.70540 cumulative IPC: 1.50224 (Simulation time: 0 hr 1 min 27 sec) 
Heartbeat CPU  0 instructions:   86000000 cycles:   57453475 heartbeat IPC: 1.14762 cumulative IPC: 1.49686 (Simulation time: 0 hr 1 min 27 sec) 
Heartbeat CPU  0 instructions:   87000000 cycles:   58279657 heartbeat IPC: 1.21039 cumulative IPC: 1.49280 (Simulation time: 0 hr 1 min 28 sec) 
Heartbeat CPU  0 instructions:   88000000 cycles:   58896245 heartbeat IPC: 1.62183 cumulative IPC: 1.49415 (Simulation time: 0 hr 1 min 29 sec) 
Heartbeat CPU  0 instructions:   89000003 cycles:   59531655 heartbeat IPC: 1.57379 cumulative IPC: 1.49500 (Simulation time: 0 hr 1 min 30 sec) 
Heartbeat CPU  0 instructions:   90000003 cycles:   60225865 heartbeat IPC: 1.44049 cumulative IPC: 1.49437 (Simulation time: 0 hr 1 min 31 sec) 
Heartbeat CPU  0 instructions:   91000001 cycles:   60893582 heartbeat IPC: 1.49764 cumulative IPC: 1.49441 (Simulation time: 0 hr 1 min 32 sec) 
Heartbeat CPU  0 instructions:   92000000 cycles:   61467394 heartbeat IPC: 1.74273 cumulative IPC: 1.49673 (Simulation time: 0 hr 1 min 33 sec) 
Heartbeat CPU  0 instructions:   93000002 cycles:   62012602 heartbeat IPC: 1.83417 cumulative IPC: 1.49970 (Simulation time: 0 hr 1 min 35 sec) 
Heartbeat CPU  0 instructions:   94000002 cycles:   62600517 heartbeat IPC: 1.70093 cumulative IPC: 1.50159 (Simulation time: 0 hr 1 min 36 sec) 
Heartbeat CPU  0 instructions:   95000003 cycles:   63436194 heartbeat IPC: 1.19664 cumulative IPC: 1.49757 (Simulation time: 0 hr 1 min 36 sec) 
Heartbeat CPU  0 instructions:   96000000 cycles:   64283218 heartbeat IPC: 1.18060 cumulative IPC: 1.49339 (Simulation time: 0 hr 1 min 37 sec) 
Heartbeat CPU  0 instructions:   97000002 cycles:   64916728 heartbeat IPC: 1.57851 cumulative IPC: 1.49422 (Simulation time: 0 hr 1 min 38 sec) 
Heartbeat CPU  0 instructions:   98000003 cycles:   65556834 heartbeat IPC: 1.56224 cumulative IPC: 1.49489 (Simulation time: 0 hr 1 min 39 sec) 
Heartbeat CPU  0 instructions:   99000002 cycles:   66209142 heartbeat IPC: 1.53302 cumulative IPC: 1.49526 (Simulation time: 0 hr 1 min 40 sec) 
Heartbeat CPU  0 instructions:  100000000 cycles:   66793788 heartbeat IPC: 1.71043 cumulative IPC: 1.49715 (Simulation time: 0 hr 1 min 41 sec) 

Warmup complete CPU  0 instructions:  100000002 cycles:   66793790 (Simulation time: 0 hr 1 min 41 sec) 

Heartbeat CPU  0 instructions:  101000001 cycles:   73292303 heartbeat IPC: 0.15388 cumulative IPC: 0.15388 (Simulation time: 0 hr 1 min 44 sec) 
Heartbeat CPU  0 instructions:  102000000 cycles:   76966906 heartbeat IPC: 0.27214 cumulative IPC: 0.19660 (Simulation time: 0 hr 1 min 46 sec) 
Heartbeat CPU  0 instructions:  103000001 cycles:   81108430 heartbeat IPC: 0.24146 cumulative IPC: 0.20958 (Simulation time: 0 hr 1 min 49 sec) 
Heartbeat CPU  0 instructions:  104000000 cycles:   85433186 heartbeat IPC: 0.23123 cumulative IPC: 0.21460 (Simulation time: 0 hr 1 min 51 sec) 
Heartbeat CPU  0 instructions:  105000003 cycles:   88781545 heartbeat IPC: 0.29865 cumulative IPC: 0.22740 (Simulation time: 0 hr 1 min 53 sec) 
Heartbeat CPU  0 instructions:  106000001 cycles:   91773570 heartbeat IPC: 0.33422 cumulative IPC: 0.24019 (Simulation time: 0 hr 1 min 55 sec) 
Heartbeat CPU  0 instructions:  107000003 cycles:   95615886 heartbeat IPC: 0.26026 cumulative IPC: 0.24287 (Simulation time: 0 hr 1 min 57 sec) 
Heartbeat CPU  0 instructions:  108000000 cycles:   99082094 heartbeat IPC: 0.28850 cumulative IPC: 0.24777 (Simulation time: 0 hr 1 min 59 sec) 
Heartbeat CPU  0 instructions:  109000000 cycles:  102496099 heartbeat IPC: 0.29291 cumulative IPC: 0.25208 (Simulation time: 0 hr 2 min 1 sec) 
Heartbeat CPU  0 instructions:  110000001 cycles:  104717600 heartbeat IPC: 0.45015 cumulative IPC: 0.26369 (Simulation time: 0 hr 2 min 2 sec) 
Heartbeat CPU  0 instructions:  111000003 cycles:  107275232 heartbeat IPC: 0.39099 cumulative IPC: 0.27173 (Simulation time: 0 hr 2 min 4 sec) 
Heartbeat CPU  0 instructions:  112000000 cycles:  109115032 heartbeat IPC: 0.54354 cumulative IPC: 0.28355 (Simulation time: 0 hr 2 min 6 sec) 
Heartbeat CPU  0 instructions:  113000002 cycles:  110845456 heartbeat IPC: 0.57789 cumulative IPC: 0.29511 (Simulation time: 0 hr 2 min 7 sec) 
Heartbeat CPU  0 instructions:  114000001 cycles:  112324461 heartbeat IPC: 0.67613 cumulative IPC: 0.30749 (Simulation time: 0 hr 2 min 9 sec) 
Heartbeat CPU  0 instructions:  115000000 cycles:  114342251 heartbeat IPC: 0.49559 cumulative IPC: 0.31547 (Simulation time: 0 hr 2 min 11 sec) 
Heartbeat CPU  0 instructions:  116000000 cycles:  118204820 heartbeat IPC: 0.25890 cumulative IPC: 0.31122 (Simulation time: 0 hr 2 min 13 sec) 
Heartbeat CPU  0 instructions:  117000000 cycles:  121268895 heartbeat IPC: 0.32636 cumulative IPC: 0.31207 (Simulation time: 0 hr 2 min 15 sec) 
Heartbeat CPU  0 instructions:  118000002 cycles:  123946242 heartbeat IPC: 0.37350 cumulative IPC: 0.31495 (Simulation time: 0 hr 2 min 17 sec) 
Heartbeat CPU  0 instructions:  119000000 cycles:  127326502 heartbeat IPC: 0.29583 cumulative IPC: 0.31388 (Simulation time: 0 hr 2 min 19 sec) 
Heartbeat CPU  0 instructions:  120000000 cycles:  129547037 heartbeat IPC: 0.45034 cumulative IPC: 0.31871 (Simulation time: 0 hr 2 min 21 sec) 
Heartbeat CPU  0 instructions:  121000001 cycles:  133959050 heartbeat IPC: 0.22665 cumulative IPC: 0.31266 (Simulation time: 0 hr 2 min 23 sec) 
Heartbeat CPU  0 instructions:  122000001 cycles:  137127443 heartbeat IPC: 0.31562 cumulative IPC: 0.31279 (Simulation time: 0 hr 2 min 25 sec) 
Heartbeat CPU  0 instructions:  123000000 cycles:  138876995 heartbeat IPC: 0.57157 cumulative IPC: 0.31908 (Simulation time: 0 hr 2 min 26 sec) 
Heartbeat CPU  0 instructions:  124000000 cycles:  140333047 heartbeat IPC: 0.68679 cumulative IPC: 0.32636 (Simulation time: 0 hr 2 min 27 sec) 
Heartbeat CPU  0 instructions:  125000000 cycles:  143750504 heartbeat IPC: 0.29262 cumulative IPC: 0.32486 (Simulation time: 0 hr 2 min 29 sec) 
Heartbeat CPU  0 instructions:  126000002 cycles:  146507680 heartbeat IPC: 0.36269 cumulative IPC: 0.32617 (Simulation time: 0 hr 2 min 31 sec) 
Heartbeat CPU  0 instructions:  127000002 cycles:  150520101 heartbeat IPC: 0.24923 cumulative IPC: 0.32248 (Simulation time: 0 hr 2 min 33 sec) 
Heartbeat CPU  0 instructions:  128000000 cycles:  153893373 heartbeat IPC: 0.29645 cumulative IPC: 0.32147 (Simulation time: 0 hr 2 min 35 sec) 
Heartbeat CPU  0 instructions:  129000001 cycles:  156306519 heartbeat IPC: 0.41440 cumulative IPC: 0.32398 (Simulation time: 0 hr 2 min 37 sec) 
Heartbeat CPU  0 instructions:  130000002 cycles:  161104243 heartbeat IPC: 0.20843 cumulative IPC: 0.31810 (Simulation time: 0 hr 2 min 40 sec) 
Heartbeat CPU  0 instructions:  131000000 cycles:  163037896 heartbeat IPC: 0.51715 cumulative IPC: 0.32210 (Simulation time: 0 hr 2 min 41 sec) 
Heartbeat CPU  0 instructions:  132000000 cycles:  164707553 heartbeat IPC: 0.59893 cumulative IPC: 0.32682 (Simulation time: 0 hr 2 min 42 sec) 
Heartbeat CPU  0 instructions:  133000000 cycles:  166702698 heartbeat IPC: 0.50122 cumulative IPC: 0.33030 (Simulation time: 0 hr 2 min 43 sec) 
Heartbeat CPU  0 instructions:  134000000 cycles:  169723992 heartbeat IPC: 0.33098 cumulative IPC: 0.33032 (Simulation time: 0 hr 2 min 44 sec) 
Heartbeat CPU  0 instructions:  135000002 cycles:  173607646 heartbeat IPC: 0.25749 cumulative IPC: 0.32767 (Simulation time: 0 hr 2 min 47 sec) 
Heartbeat CPU  0 instructions:  136000000 cycles:  176153068 heartbeat IPC: 0.39286 cumulative IPC: 0.32919 (Simulation time: 0 hr 2 min 49 sec) 
Heartbeat CPU  0 instructions:  137000000 cycles:  179379169 heartbeat IPC: 0.30997 cumulative IPC: 0.32864 (Simulation time: 0 hr 2 min 51 sec) 
Heartbeat CPU  0 instructions:  138000002 cycles:  182460735 heartbeat IPC: 0.32451 cumulative IPC: 0.32853 (Simulation time: 0 hr 2 min 53 sec) 
Heartbeat CPU  0 instructions:  139000000 cycles:  186660614 heartbeat IPC: 0.23810 cumulative IPC: 0.32536 (Simulation time: 0 hr 2 min 55 sec) 
Heartbeat CPU  0 instructions:  140000000 cycles:  188441358 heartbeat IPC: 0.56156 cumulative IPC: 0.32882 (Simulation time: 0 hr 2 min 56 sec) 
Heartbeat CPU  0 instructions:  141000000 cycles:  190027442 heartbeat IPC: 0.63048 cumulative IPC: 0.33270 (Simulation time: 0 hr 2 min 57 sec) 
Heartbeat CPU  0 instructions:  142000000 cycles:  192476460 heartbeat IPC: 0.40833 cumulative IPC: 0.33417 (Simulation time: 0 hr 2 min 58 sec) 
Heartbeat CPU  0 instructions:  143000003 cycles:  195004579 heartbeat IPC: 0.39555 cumulative IPC: 0.33539 (Simulation time: 0 hr 3 min 0 sec) 
Heartbeat CPU  0 instructions:  144000000 cycles:  199285367 heartbeat IPC: 0.23360 cumulative IPC: 0.33210 (Simulation time: 0 hr 3 min 3 sec) 
Heartbeat CPU  0 instructions:  145000002 cycles:  202086141 heartbeat IPC: 0.35704 cumulative IPC: 0.33261 (Simulation time: 0 hr 3 min 4 sec) 
Heartbeat CPU  0 instructions:  146000003 cycles:  204598931 heartbeat IPC: 0.39796 cumulative IPC: 0.33380 (Simulation time: 0 hr 3 min 6 sec) 
Heartbeat CPU  0 instructions:  147000001 cycles:  208550644 heartbeat IPC: 0.25305 cumulative IPC: 0.33155 (Simulation time: 0 hr 3 min 9 sec) 
Heartbeat CPU  0 instructions:  148000000 cycles:  212062979 heartbeat IPC: 0.28471 cumulative IPC: 0.33042 (Simulation time: 0 hr 3 min 11 sec) 
Heartbeat CPU  0 instructions:  149000000 cycles:  213844126 heartbeat IPC: 0.56144 cumulative IPC: 0.33322 (Simulation time: 0 hr 3 min 12 sec) 
Heartbeat CPU  0 instructions:  150000002 cycles:  215350486 heartbeat IPC: 0.66385 cumulative IPC: 0.33657 (Simulation time: 0 hr 3 min 13 sec) 
Heartbeat CPU  0 instructions:  151000000 cycles:  218256454 heartbeat IPC: 0.34412 cumulative IPC: 0.33672 (Simulation time: 0 hr 3 min 14 sec) 
Heartbeat CPU  0 instructions:  152000000 cycles:  220716920 heartbeat IPC: 0.40643 cumulative IPC: 0.33783 (Simulation time: 0 hr 3 min 16 sec) 
Heartbeat CPU  0 instructions:  153000000 cycles:  224521906 heartbeat IPC: 0.26281 cumulative IPC: 0.33602 (Simulation time: 0 hr 3 min 18 sec) 
Heartbeat CPU  0 instructions:  154000002 cycles:  228106588 heartbeat IPC: 0.27897 cumulative IPC: 0.33475 (Simulation time: 0 hr 3 min 20 sec) 
Heartbeat CPU  0 instructions:  155000002 cycles:  229878516 heartbeat IPC: 0.56436 cumulative IPC: 0.33725 (Simulation time: 0 hr 3 min 22 sec) 
Heartbeat CPU  0 instructions:  156000000 cycles:  234500105 heartbeat IPC: 0.21638 cumulative IPC: 0.33392 (Simulation time: 0 hr 3 min 25 sec) 
Heartbeat CPU  0 instructions:  157000000 cycles:  237462877 heartbeat IPC: 0.33752 cumulative IPC: 0.33398 (Simulation time: 0 hr 3 min 27 sec) 
Heartbeat CPU  0 instructions:  158000003 cycles:  239219671 heartbeat IPC: 0.56922 cumulative IPC: 0.33638 (Simulation time: 0 hr 3 min 27 sec) 
Heartbeat CPU  0 instructions:  159000000 cycles:  240659296 heartbeat IPC: 0.69462 cumulative IPC: 0.33934 (Simulation time: 0 hr 3 min 29 sec) 
Heartbeat CPU  0 instructions:  160000000 cycles:  244183012 heartbeat IPC: 0.28379 cumulative IPC: 0.33824 (Simulation time: 0 hr 3 min 30 sec) 
Heartbeat CPU  0 instructions:  161000003 cycles:  247082306 heartbeat IPC: 0.34491 cumulative IPC: 0.33835 (Simulation time: 0 hr 3 min 32 sec) 
Heartbeat CPU  0 instructions:  162000001 cycles:  250439860 heartbeat IPC: 0.29784 cumulative IPC: 0.33761 (Simulation time: 0 hr 3 min 35 sec) 
Heartbeat CPU  0 instructions:  163000000 cycles:  253845378 heartbeat IPC: 0.29364 cumulative IPC: 0.33681 (Simulation time: 0 hr 3 min 37 sec) 
Heartbeat CPU  0 instructions:  164000000 cycles:  256206932 heartbeat IPC: 0.42345 cumulative IPC: 0.33789 (Simulation time: 0 hr 3 min 39 sec) 
Heartbeat CPU  0 instructions:  165000001 cycles:  260939757 heartbeat IPC: 0.21129 cumulative IPC: 0.33480 (Simulation time: 0 hr 3 min 41 sec) 
Heartbeat CPU  0 instructions:  166000000 cycles:  262927561 heartbeat IPC: 0.50307 cumulative IPC: 0.33651 (Simulation time: 0 hr 3 min 42 sec) 
Heartbeat CPU  0 instructions:  167000001 cycles:  264600598 heartbeat IPC: 0.59772 cumulative IPC: 0.33871 (Simulation time: 0 hr 3 min 43 sec) 
Heartbeat CPU  0 instructions:  168000000 cycles:  266583299 heartbeat IPC: 0.50436 cumulative IPC: 0.34036 (Simulation time: 0 hr 3 min 45 sec) 
Heartbeat CPU  0 instructions:  169000001 cycles:  269605095 heartbeat IPC: 0.33093 cumulative IPC: 0.34022 (Simulation time: 0 hr 3 min 46 sec) 
Heartbeat CPU  0 instructions:  170000002 cycles:  273482427 heartbeat IPC: 0.25791 cumulative IPC: 0.33867 (Simulation time: 0 hr 3 min 49 sec) 
Heartbeat CPU  0 instructions:  171000000 cycles:  275989057 heartbeat IPC: 0.39894 cumulative IPC: 0.33940 (Simulation time: 0 hr 3 min 51 sec) 
Heartbeat CPU  0 instructions:  172000000 cycles:  279264389 heartbeat IPC: 0.30531 cumulative IPC: 0.33887 (Simulation time: 0 hr 3 min 53 sec) 
Heartbeat CPU  0 instructions:  173000000 cycles:  282267691 heartbeat IPC: 0.33297 cumulative IPC: 0.33879 (Simulation time: 0 hr 3 min 55 sec) 
Heartbeat CPU  0 instructions:  174000000 cycles:  286512262 heartbeat IPC: 0.23560 cumulative IPC: 0.33679 (Simulation time: 0 hr 3 min 57 sec) 
Heartbeat CPU  0 instructions:  175000000 cycles:  288297661 heartbeat IPC: 0.56010 cumulative IPC: 0.33859 (Simulation time: 0 hr 3 min 58 sec) 
Heartbeat CPU  0 instructions:  176000000 cycles:  289890297 heartbeat IPC: 0.62789 cumulative IPC: 0.34066 (Simulation time: 0 hr 3 min 59 sec) 
Heartbeat CPU  0 instructions:  177000002 cycles:  292297499 heartbeat IPC: 0.41542 cumulative IPC: 0.34146 (Simulation time: 0 hr 4 min 1 sec) 
Heartbeat CPU  0 instructions:  178000001 cycles:  294869890 heartbeat IPC: 0.38874 cumulative IPC: 0.34199 (Simulation time: 0 hr 4 min 3 sec) 
Heartbeat CPU  0 instructions:  179000003 cycles:  299140316 heartbeat IPC: 0.23417 cumulative IPC: 0.34001 (Simulation time: 0 hr 4 min 5 sec) 
Heartbeat CPU  0 instructions:  180000000 cycles:  302508880 heartbeat IPC: 0.29686 cumulative IPC: 0.33939 (Simulation time: 0 hr 4 min 8 sec) 
Heartbeat CPU  0 instructions:  181000003 cycles:  304451945 heartbeat IPC: 0.51465 cumulative IPC: 0.34083 (Simulation time: 0 hr 4 min 9 sec) 
Heartbeat CPU  0 instructions:  182000000 cycles:  308915676 heartbeat IPC: 0.22403 cumulative IPC: 0.33867 (Simulation time: 0 hr 4 min 12 sec) 
Heartbeat CPU  0 instructions:  183000000 cycles:  312003988 heartbeat IPC: 0.32380 cumulative IPC: 0.33849 (Simulation time: 0 hr 4 min 14 sec) 
Heartbeat CPU  0 instructions:  184000000 cycles:  313762450 heartbeat IPC: 0.56868 cumulative IPC: 0.34012 (Simulation time: 0 hr 4 min 15 sec) 
Heartbeat CPU  0 instructions:  185000002 cycles:  315196485 heartbeat IPC: 0.69733 cumulative IPC: 0.34219 (Simulation time: 0 hr 4 min 16 sec) 
Heartbeat CPU  0 instructions:  186000001 cycles:  318620776 heartbeat IPC: 0.29203 cumulative IPC: 0.34150 (Simulation time: 0 hr 4 min 18 sec) 
Heartbeat CPU  0 instructions:  187000000 cycles:  321501521 heartbeat IPC: 0.34713 cumulative IPC: 0.34157 (Simulation time: 0 hr 4 min 20 sec) 
Heartbeat CPU  0 instructions:  188000000 cycles:  324605085 heartbeat IPC: 0.32221 cumulative IPC: 0.34133 (Simulation time: 0 hr 4 min 22 sec) 
Heartbeat CPU  0 instructions:  189000000 cycles:  328151370 heartbeat IPC: 0.28199 cumulative IPC: 0.34053 (Simulation time: 0 hr 4 min 24 sec) 
Heartbeat CPU  0 instructions:  190000001 cycles:  330136374 heartbeat IPC: 0.50378 cumulative IPC: 0.34176 (Simulation time: 0 hr 4 min 26 sec) 
Heartbeat CPU  0 instructions:  191000002 cycles:  334879711 heartbeat IPC: 0.21082 cumulative IPC: 0.33944 (Simulation time: 0 hr 4 min 29 sec) 
Heartbeat CPU  0 instructions:  192000000 cycles:  337350137 heartbeat IPC: 0.40479 cumulative IPC: 0.34004 (Simulation time: 0 hr 4 min 30 sec) 
Heartbeat CPU  0 instructions:  193000003 cycles:  339068723 heartbeat IPC: 0.58188 cumulative IPC: 0.34157 (Simulation time: 0 hr 4 min 31 sec) 
Heartbeat CPU  0 instructions:  194000001 cycles:  340765442 heartbeat IPC: 0.58937 cumulative IPC: 0.34310 (Simulation time: 0 hr 4 min 32 sec) 
Heartbeat CPU  0 instructions:  195000001 cycles:  344044970 heartbeat IPC: 0.30492 cumulative IPC: 0.34265 (Simulation time: 0 hr 4 min 34 sec) 
Heartbeat CPU  0 instructions:  196000000 cycles:  347487362 heartbeat IPC: 0.29050 cumulative IPC: 0.34201 (Simulation time: 0 hr 4 min 36 sec) 
Heartbeat CPU  0 instructions:  197000000 cycles:  350292014 heartbeat IPC: 0.35655 cumulative IPC: 0.34215 (Simulation time: 0 hr 4 min 38 sec) 
Heartbeat CPU  0 instructions:  198000000 cycles:  353652382 heartbeat IPC: 0.29759 cumulative IPC: 0.34163 (Simulation time: 0 hr 4 min 40 sec) 
Heartbeat CPU  0 instructions:  199000002 cycles:  356179398 heartbeat IPC: 0.39572 cumulative IPC: 0.34210 (Simulation time: 0 hr 4 min 42 sec) 
Heartbeat CPU  0 instructions:  200000000 cycles:  360892965 heartbeat IPC: 0.21215 cumulative IPC: 0.34002 (Simulation time: 0 hr 4 min 45 sec) 
Finished CPU 0 instructions: 100000000 cycles: 294099188 cumulative IPC: 0.34002 (Simulation time: 0 hr 4 min 45 sec) 

ChampSim completed all CPUs

[ROI Statistics]
Core_0_instructions 100000000
Core_0_cycles 294099188
Core_0_IPC 0.34002

Core_0_branch_prediction_accuracy 95.09858
Core_0_branch_MPKI 8.66907
Core_0_average_ROB_occupancy_at_mispredict 83.45435

Core_0_L1D_total_access 20553612
Core_0_L1D_total_hit 15325056
Core_0_L1D_total_miss 5228556
Core_0_L1D_loads 15107144
Core_0_L1D_load_hit 10707153
Core_0_L1D_load_miss 4399991
Core_0_L1D_RFOs 5446468
Core_0_L1D_RFO_hit 4617903
Core_0_L1D_RFO_miss 828565
Core_0_L1D_prefetches 0
Core_0_L1D_prefetch_hit 0
Core_0_L1D_prefetch_miss 0
Core_0_L1D_writebacks 0
Core_0_L1D_writeback_hit 0
Core_0_L1D_writeback_miss 0
Core_0_L1D_prefetch_requested 0
Core_0_L1D_prefetch_issued 0
Core_0_L1D_prefetch_useful 0
Core_0_L1D_prefetch_useless 0
Core_0_L1D_prefetch_late 0
Core_0_L1D_average_miss_latency 117.05141

Core_0_L1I_total_access 20959436
Core_0_L1I_total_hit 20958804
Core_0_L1I_total_miss 632
Core_0_L1I_loads 20959436
Core_0_L1I_load_hit 20958804
Core_0_L1I_load_miss 632
Core_0_L1I_RFOs 0
Core_0_L1I_RFO_hit 0
Core_0_L1I_RFO_miss 0
Core_0_L1I_prefetches 0
Core_0_L1I_prefetch_hit 0
Core_0_L1I_prefetch_miss 0
Core_0_L1I_writebacks 0
Core_0_L1I_writeback_hit 0
Core_0_L1I_writeback_miss 0
Core_0_L1I_prefetch_requested 0
Core_0_L1I_prefetch_issued 0
Core_0_L1I_prefetch_useful 0
Core_0_L1I_prefetch_useless 0
Core_0_L1I_prefetch_late 0
Core_0_L1I_average_miss_latency 204.13449

Core_0_L2C_total_access 11317088
Core_0_L2C_total_hit 6540709
Core_0_L2C_total_miss 4776379
Core_0_L2C_loads 4400012
Core_0_L2C_load_hit 2326742
Core_0_L2C_load_miss 2073270
Core_0_L2C_RFOs 828484
Core_0_L2C_RFO_hit 140079
Core_0_L2C_RFO_miss 688405
Core_0_L2C_prefetches 3707751
Core_0_L2C_prefetch_hit 1693138
Core_0_L2C_prefetch_miss 2014613
Core_0_L2C_writebacks 2380841
Core_0_L2C_writeback_hit 2380750
Core_0_L2C_writeback_miss 91
Core_0_L2C_prefetch_requested 9007341
Core_0_L2C_prefetch_issued 8866333
Core_0_L2C_prefetch_useful 2975833
Core_0_L2C_prefetch_useless 1697698
Core_0_L2C_prefetch_late 322516
Core_0_L2C_average_miss_latency 174.69718

Core_0_LLC_total_access 6403003
Core_0_LLC_total_hit 3032659
Core_0_LLC_total_miss 3370344
Core_0_LLC_loads 1787516
Core_0_LLC_load_hit 666667
Core_0_LLC_load_miss 1120849
Core_0_LLC_RFOs 688359
Core_0_LLC_RFO_hit 155548
Core_0_LLC_RFO_miss 532811
Core_0_LLC_prefetches 2300357
Core_0_LLC_prefetch_hit 990146
Core_0_LLC_prefetch_miss 1310211
Core_0_LLC_writebacks 1626771
Core_0_LLC_writeback_hit 1220298
Core_0_LLC_writeback_miss 406473
Core_0_LLC_prefetch_requested 0
Core_0_LLC_prefetch_issued 0
Core_0_LLC_prefetch_useful 247009
Core_0_LLC_prefetch_useless 2716076
Core_0_LLC_prefetch_late 0
Core_0_LLC_average_miss_latency 208.86093

Core_0_major_page_fault 0
Core_0_minor_page_fault 12935

CPU 0 L2C next line prefetcher final stats
Channel_0_RQ_row_buffer_hit 912752
Channel_0_RQ_row_buffer_miss 2050027
Channel_0_WQ_row_buffer_hit 345827
Channel_0_WQ_row_buffer_miss 587482
Channel_0_WQ_full 840
Channel_0_dbus_congested 1936316

avg_congested_cycle 10
