*************************************************
   ChampSim Multicore Out-of-Order Simulator
   Last compiled: Dec 24 2023 16:10:52
*************************************************

trace_0 ./test_trace/450.soplex-247B.champsimtrace.xz
CPU 0 L2C next line prefetcher
Initialize SHIP state
LLC Next Line Prefetcher
warmup_instructions 100000000
simulation_instructions 100000000
champsim_seed 223

num_cpus 1
cpu_freq 4000
dram_io_freq 2400
page_size 4096
block_size 64
max_read_per_cycle 8
max_fill_per_cycle 1
dram_channels 1
dram_ranks 1
dram_banks 8
dram_rows 65536
dram_columns 128
dram_row_size 8
dram_size 4096
dram_pages 1048576

fetch_width 6
decode_width 6
exec_width 4
lq_width 2
sq_width 2
retire_width 4
scheduler_size 128
branch_mispredict_penalty 20
rob_size 256
lq_size 72
sq_size 56
num_instr_destinations_sparc 4
num_instr_destinations 2
num_instr_sources 4

itlb_set 16
itlb_way 8
itlb_rq_size 16
itlb_wq_size 16
itlb_pq_size 0
itlb_mshr_size 8
itlb_latency 1

dtlb_set 16
dtlb_way 4
dtlb_rq_size 16
dtlb_wq_size 16
dtlb_pq_size 0
dtlb_mshr_size 8
dtlb_latency 1

stlb_set 128
stlb_way 12
stlb_rq_size 32
stlb_wq_size 32
stlb_pq_size 0
stlb_mshr_size 16
stlb_latency 8

l1i_size 32
l1i_set 64
l1i_way 8
l1i_rq_size 64
l1i_wq_size 64
l1i_pq_size 8
l1i_mshr_size 8
l1i_latency 1

l1d_size 32
l1d_set 64
l1d_way 8
l1d_rq_size 64
l1d_wq_size 64
l1d_pq_size 8
l1d_mshr_size 16
l1d_latency 4

l2c_size 512
l2c_set 1024
l2c_way 8
l2c_rq_size 32
l2c_wq_size 32
l2c_pq_size 16
l2c_mshr_size 32
l2c_latency 10

llc_size 2048
llc_set 2048
llc_way 16
llc_rq_size 32
llc_wq_size 32
llc_pq_size 32
llc_mshr_size 64
llc_latency 20

dram_channel_width 8
dram_wq_size 64
dram_rq_size 64
tRP 15
tRCD 15
tCAS 12.5
dram_dbus_turn_around_time 30
dram_write_high_wm 56
dram_write_low_wm 48
min_dram_writes_per_switch 16
dram_mtps 2400
dram_dbus_return_time 13


Heartbeat CPU  0 instructions:    1000002 cycles:     755080 heartbeat IPC: 1.32437 cumulative IPC: 1.32437 (Simulation time: 0 hr 0 min 1 sec) 
Heartbeat CPU  0 instructions:    2000001 cycles:    1395995 heartbeat IPC: 1.56027 cumulative IPC: 1.43267 (Simulation time: 0 hr 0 min 2 sec) 
Heartbeat CPU  0 instructions:    3000001 cycles:    2120638 heartbeat IPC: 1.37999 cumulative IPC: 1.41467 (Simulation time: 0 hr 0 min 4 sec) 
Heartbeat CPU  0 instructions:    4000000 cycles:    2661886 heartbeat IPC: 1.84758 cumulative IPC: 1.50269 (Simulation time: 0 hr 0 min 5 sec) 
Heartbeat CPU  0 instructions:    5000000 cycles:    3568450 heartbeat IPC: 1.10307 cumulative IPC: 1.40117 (Simulation time: 0 hr 0 min 6 sec) 
Heartbeat CPU  0 instructions:    6000001 cycles:    4457658 heartbeat IPC: 1.12460 cumulative IPC: 1.34600 (Simulation time: 0 hr 0 min 7 sec) 
Heartbeat CPU  0 instructions:    7000000 cycles:    5255363 heartbeat IPC: 1.25359 cumulative IPC: 1.33197 (Simulation time: 0 hr 0 min 8 sec) 
Heartbeat CPU  0 instructions:    8000000 cycles:    5946214 heartbeat IPC: 1.44749 cumulative IPC: 1.34539 (Simulation time: 0 hr 0 min 10 sec) 
Heartbeat CPU  0 instructions:    9000001 cycles:    6563556 heartbeat IPC: 1.61985 cumulative IPC: 1.37121 (Simulation time: 0 hr 0 min 11 sec) 
Heartbeat CPU  0 instructions:   10000000 cycles:    7110300 heartbeat IPC: 1.82901 cumulative IPC: 1.40641 (Simulation time: 0 hr 0 min 12 sec) 
Heartbeat CPU  0 instructions:   11000000 cycles:    7702271 heartbeat IPC: 1.68927 cumulative IPC: 1.42815 (Simulation time: 0 hr 0 min 13 sec) 
Heartbeat CPU  0 instructions:   12000000 cycles:    8377924 heartbeat IPC: 1.48005 cumulative IPC: 1.43234 (Simulation time: 0 hr 0 min 14 sec) 
Heartbeat CPU  0 instructions:   13000000 cycles:    9258051 heartbeat IPC: 1.13620 cumulative IPC: 1.40418 (Simulation time: 0 hr 0 min 15 sec) 
Heartbeat CPU  0 instructions:   14000002 cycles:   10005762 heartbeat IPC: 1.33742 cumulative IPC: 1.39919 (Simulation time: 0 hr 0 min 16 sec) 
Heartbeat CPU  0 instructions:   15000000 cycles:   10602199 heartbeat IPC: 1.67662 cumulative IPC: 1.41480 (Simulation time: 0 hr 0 min 17 sec) 
Heartbeat CPU  0 instructions:   16000000 cycles:   11127112 heartbeat IPC: 1.90508 cumulative IPC: 1.43793 (Simulation time: 0 hr 0 min 18 sec) 
Heartbeat CPU  0 instructions:   17000000 cycles:   11936626 heartbeat IPC: 1.23531 cumulative IPC: 1.42419 (Simulation time: 0 hr 0 min 19 sec) 
Heartbeat CPU  0 instructions:   18000001 cycles:   12537773 heartbeat IPC: 1.66349 cumulative IPC: 1.43566 (Simulation time: 0 hr 0 min 20 sec) 
Heartbeat CPU  0 instructions:   19000001 cycles:   13078349 heartbeat IPC: 1.84988 cumulative IPC: 1.45278 (Simulation time: 0 hr 0 min 21 sec) 
Heartbeat CPU  0 instructions:   20000000 cycles:   13674911 heartbeat IPC: 1.67627 cumulative IPC: 1.46253 (Simulation time: 0 hr 0 min 23 sec) 
Heartbeat CPU  0 instructions:   21000001 cycles:   14331767 heartbeat IPC: 1.52241 cumulative IPC: 1.46528 (Simulation time: 0 hr 0 min 24 sec) 
Heartbeat CPU  0 instructions:   22000003 cycles:   15209929 heartbeat IPC: 1.13874 cumulative IPC: 1.44642 (Simulation time: 0 hr 0 min 24 sec) 
Heartbeat CPU  0 instructions:   23000001 cycles:   15976171 heartbeat IPC: 1.30507 cumulative IPC: 1.43964 (Simulation time: 0 hr 0 min 25 sec) 
Heartbeat CPU  0 instructions:   24000000 cycles:   16570023 heartbeat IPC: 1.68392 cumulative IPC: 1.44840 (Simulation time: 0 hr 0 min 26 sec) 
Heartbeat CPU  0 instructions:   25000000 cycles:   17108771 heartbeat IPC: 1.85616 cumulative IPC: 1.46124 (Simulation time: 0 hr 0 min 27 sec) 
Heartbeat CPU  0 instructions:   26000001 cycles:   17906794 heartbeat IPC: 1.25310 cumulative IPC: 1.45196 (Simulation time: 0 hr 0 min 28 sec) 
Heartbeat CPU  0 instructions:   27000003 cycles:   18475419 heartbeat IPC: 1.75863 cumulative IPC: 1.46140 (Simulation time: 0 hr 0 min 30 sec) 
Heartbeat CPU  0 instructions:   28000000 cycles:   19033710 heartbeat IPC: 1.79118 cumulative IPC: 1.47107 (Simulation time: 0 hr 0 min 31 sec) 
Heartbeat CPU  0 instructions:   29000002 cycles:   19589156 heartbeat IPC: 1.80036 cumulative IPC: 1.48041 (Simulation time: 0 hr 0 min 32 sec) 
Heartbeat CPU  0 instructions:   30000001 cycles:   20175477 heartbeat IPC: 1.70555 cumulative IPC: 1.48695 (Simulation time: 0 hr 0 min 33 sec) 
Heartbeat CPU  0 instructions:   31000002 cycles:   21043370 heartbeat IPC: 1.15222 cumulative IPC: 1.47315 (Simulation time: 0 hr 0 min 34 sec) 
Heartbeat CPU  0 instructions:   32000000 cycles:   21863555 heartbeat IPC: 1.21923 cumulative IPC: 1.46362 (Simulation time: 0 hr 0 min 35 sec) 
Heartbeat CPU  0 instructions:   33000000 cycles:   22459493 heartbeat IPC: 1.67803 cumulative IPC: 1.46931 (Simulation time: 0 hr 0 min 35 sec) 
Heartbeat CPU  0 instructions:   34000000 cycles:   23070952 heartbeat IPC: 1.63543 cumulative IPC: 1.47371 (Simulation time: 0 hr 0 min 36 sec) 
Heartbeat CPU  0 instructions:   35000000 cycles:   23794764 heartbeat IPC: 1.38157 cumulative IPC: 1.47091 (Simulation time: 0 hr 0 min 38 sec) 
Heartbeat CPU  0 instructions:   36000000 cycles:   24393264 heartbeat IPC: 1.67084 cumulative IPC: 1.47582 (Simulation time: 0 hr 0 min 39 sec) 
Heartbeat CPU  0 instructions:   37000002 cycles:   24934967 heartbeat IPC: 1.84603 cumulative IPC: 1.48386 (Simulation time: 0 hr 0 min 40 sec) 
Heartbeat CPU  0 instructions:   38000002 cycles:   25501322 heartbeat IPC: 1.76568 cumulative IPC: 1.49012 (Simulation time: 0 hr 0 min 41 sec) 
Heartbeat CPU  0 instructions:   39000000 cycles:   26081667 heartbeat IPC: 1.72311 cumulative IPC: 1.49530 (Simulation time: 0 hr 0 min 42 sec) 
Heartbeat CPU  0 instructions:   40000000 cycles:   26855805 heartbeat IPC: 1.29176 cumulative IPC: 1.48944 (Simulation time: 0 hr 0 min 43 sec) 
Heartbeat CPU  0 instructions:   41000001 cycles:   27721128 heartbeat IPC: 1.15564 cumulative IPC: 1.47902 (Simulation time: 0 hr 0 min 44 sec) 
Heartbeat CPU  0 instructions:   42000001 cycles:   28371815 heartbeat IPC: 1.53684 cumulative IPC: 1.48034 (Simulation time: 0 hr 0 min 45 sec) 
Heartbeat CPU  0 instructions:   43000000 cycles:   29003186 heartbeat IPC: 1.58385 cumulative IPC: 1.48260 (Simulation time: 0 hr 0 min 46 sec) 
Heartbeat CPU  0 instructions:   44000000 cycles:   29627808 heartbeat IPC: 1.60097 cumulative IPC: 1.48509 (Simulation time: 0 hr 0 min 47 sec) 
Heartbeat CPU  0 instructions:   45000000 cycles:   30353635 heartbeat IPC: 1.37774 cumulative IPC: 1.48252 (Simulation time: 0 hr 0 min 48 sec) 
Heartbeat CPU  0 instructions:   46000001 cycles:   30892660 heartbeat IPC: 1.85520 cumulative IPC: 1.48903 (Simulation time: 0 hr 0 min 49 sec) 
Heartbeat CPU  0 instructions:   47000000 cycles:   31452537 heartbeat IPC: 1.78610 cumulative IPC: 1.49432 (Simulation time: 0 hr 0 min 51 sec) 
Heartbeat CPU  0 instructions:   48000000 cycles:   32037920 heartbeat IPC: 1.70828 cumulative IPC: 1.49822 (Simulation time: 0 hr 0 min 52 sec) 
Heartbeat CPU  0 instructions:   49000001 cycles:   32776972 heartbeat IPC: 1.35309 cumulative IPC: 1.49495 (Simulation time: 0 hr 0 min 53 sec) 
Heartbeat CPU  0 instructions:   50000001 cycles:   33644430 heartbeat IPC: 1.15279 cumulative IPC: 1.48613 (Simulation time: 0 hr 0 min 53 sec) 
Heartbeat CPU  0 instructions:   51000003 cycles:   34337984 heartbeat IPC: 1.44185 cumulative IPC: 1.48524 (Simulation time: 0 hr 0 min 54 sec) 
Heartbeat CPU  0 instructions:   52000000 cycles:   34937222 heartbeat IPC: 1.66878 cumulative IPC: 1.48838 (Simulation time: 0 hr 0 min 55 sec) 
Heartbeat CPU  0 instructions:   53000000 cycles:   35514344 heartbeat IPC: 1.73274 cumulative IPC: 1.49235 (Simulation time: 0 hr 0 min 56 sec) 
Heartbeat CPU  0 instructions:   54000002 cycles:   36276712 heartbeat IPC: 1.31171 cumulative IPC: 1.48856 (Simulation time: 0 hr 0 min 58 sec) 
Heartbeat CPU  0 instructions:   55000001 cycles:   36849084 heartbeat IPC: 1.74711 cumulative IPC: 1.49257 (Simulation time: 0 hr 0 min 59 sec) 
Heartbeat CPU  0 instructions:   56000000 cycles:   37402506 heartbeat IPC: 1.80694 cumulative IPC: 1.49723 (Simulation time: 0 hr 1 min 0 sec) 
Heartbeat CPU  0 instructions:   57000002 cycles:   37989915 heartbeat IPC: 1.70239 cumulative IPC: 1.50040 (Simulation time: 0 hr 1 min 1 sec) 
Heartbeat CPU  0 instructions:   58000001 cycles:   38722078 heartbeat IPC: 1.36581 cumulative IPC: 1.49785 (Simulation time: 0 hr 1 min 2 sec) 
Heartbeat CPU  0 instructions:   59000001 cycles:   39591765 heartbeat IPC: 1.14984 cumulative IPC: 1.49021 (Simulation time: 0 hr 1 min 3 sec) 
Heartbeat CPU  0 instructions:   60000000 cycles:   40310609 heartbeat IPC: 1.39112 cumulative IPC: 1.48844 (Simulation time: 0 hr 1 min 4 sec) 
Heartbeat CPU  0 instructions:   61000003 cycles:   40918627 heartbeat IPC: 1.64469 cumulative IPC: 1.49076 (Simulation time: 0 hr 1 min 5 sec) 
Heartbeat CPU  0 instructions:   62000001 cycles:   41485375 heartbeat IPC: 1.76445 cumulative IPC: 1.49450 (Simulation time: 0 hr 1 min 6 sec) 
Heartbeat CPU  0 instructions:   63000000 cycles:   42275294 heartbeat IPC: 1.26595 cumulative IPC: 1.49023 (Simulation time: 0 hr 1 min 7 sec) 
Heartbeat CPU  0 instructions:   64000000 cycles:   42861465 heartbeat IPC: 1.70599 cumulative IPC: 1.49318 (Simulation time: 0 hr 1 min 8 sec) 
Heartbeat CPU  0 instructions:   65000003 cycles:   43413008 heartbeat IPC: 1.81310 cumulative IPC: 1.49725 (Simulation time: 0 hr 1 min 9 sec) 
Heartbeat CPU  0 instructions:   66000003 cycles:   44000747 heartbeat IPC: 1.70144 cumulative IPC: 1.49997 (Simulation time: 0 hr 1 min 10 sec) 
Heartbeat CPU  0 instructions:   67000000 cycles:   44687993 heartbeat IPC: 1.45508 cumulative IPC: 1.49928 (Simulation time: 0 hr 1 min 11 sec) 
Heartbeat CPU  0 instructions:   68000000 cycles:   45563166 heartbeat IPC: 1.14263 cumulative IPC: 1.49243 (Simulation time: 0 hr 1 min 12 sec) 
Heartbeat CPU  0 instructions:   69000001 cycles:   46314273 heartbeat IPC: 1.33137 cumulative IPC: 1.48982 (Simulation time: 0 hr 1 min 13 sec) 
Heartbeat CPU  0 instructions:   70000000 cycles:   46923205 heartbeat IPC: 1.64222 cumulative IPC: 1.49180 (Simulation time: 0 hr 1 min 14 sec) 
Heartbeat CPU  0 instructions:   71000002 cycles:   47452454 heartbeat IPC: 1.88947 cumulative IPC: 1.49623 (Simulation time: 0 hr 1 min 15 sec) 
Heartbeat CPU  0 instructions:   72000000 cycles:   48257417 heartbeat IPC: 1.24229 cumulative IPC: 1.49200 (Simulation time: 0 hr 1 min 16 sec) 
Heartbeat CPU  0 instructions:   73000001 cycles:   48848436 heartbeat IPC: 1.69199 cumulative IPC: 1.49442 (Simulation time: 0 hr 1 min 18 sec) 
Heartbeat CPU  0 instructions:   74000002 cycles:   49394198 heartbeat IPC: 1.83230 cumulative IPC: 1.49815 (Simulation time: 0 hr 1 min 19 sec) 
Heartbeat CPU  0 instructions:   75000003 cycles:   49991092 heartbeat IPC: 1.67534 cumulative IPC: 1.50027 (Simulation time: 0 hr 1 min 20 sec) 
Heartbeat CPU  0 instructions:   76000000 cycles:   50643350 heartbeat IPC: 1.53313 cumulative IPC: 1.50069 (Simulation time: 0 hr 1 min 21 sec) 
Heartbeat CPU  0 instructions:   77000001 cycles:   51515739 heartbeat IPC: 1.14628 cumulative IPC: 1.49469 (Simulation time: 0 hr 1 min 22 sec) 
Heartbeat CPU  0 instructions:   78000001 cycles:   52288893 heartbeat IPC: 1.29340 cumulative IPC: 1.49171 (Simulation time: 0 hr 1 min 22 sec) 
Heartbeat CPU  0 instructions:   79000003 cycles:   52897913 heartbeat IPC: 1.64199 cumulative IPC: 1.49344 (Simulation time: 0 hr 1 min 23 sec) 
Heartbeat CPU  0 instructions:   80000000 cycles:   53458910 heartbeat IPC: 1.78254 cumulative IPC: 1.49648 (Simulation time: 0 hr 1 min 24 sec) 
Heartbeat CPU  0 instructions:   81000001 cycles:   54245724 heartbeat IPC: 1.27095 cumulative IPC: 1.49321 (Simulation time: 0 hr 1 min 26 sec) 
Heartbeat CPU  0 instructions:   82000002 cycles:   54851543 heartbeat IPC: 1.65066 cumulative IPC: 1.49494 (Simulation time: 0 hr 1 min 27 sec) 
Heartbeat CPU  0 instructions:   83000003 cycles:   55414117 heartbeat IPC: 1.77755 cumulative IPC: 1.49781 (Simulation time: 0 hr 1 min 28 sec) 
Heartbeat CPU  0 instructions:   84000000 cycles:   55967630 heartbeat IPC: 1.80664 cumulative IPC: 1.50087 (Simulation time: 0 hr 1 min 29 sec) 
Heartbeat CPU  0 instructions:   85000001 cycles:   56553856 heartbeat IPC: 1.70583 cumulative IPC: 1.50299 (Simulation time: 0 hr 1 min 30 sec) 
Heartbeat CPU  0 instructions:   86000000 cycles:   57425176 heartbeat IPC: 1.14768 cumulative IPC: 1.49760 (Simulation time: 0 hr 1 min 31 sec) 
Heartbeat CPU  0 instructions:   87000000 cycles:   58251379 heartbeat IPC: 1.21036 cumulative IPC: 1.49353 (Simulation time: 0 hr 1 min 32 sec) 
Heartbeat CPU  0 instructions:   88000000 cycles:   58867473 heartbeat IPC: 1.62313 cumulative IPC: 1.49488 (Simulation time: 0 hr 1 min 33 sec) 
Heartbeat CPU  0 instructions:   89000003 cycles:   59500819 heartbeat IPC: 1.57892 cumulative IPC: 1.49578 (Simulation time: 0 hr 1 min 34 sec) 
Heartbeat CPU  0 instructions:   90000003 cycles:   60194626 heartbeat IPC: 1.44132 cumulative IPC: 1.49515 (Simulation time: 0 hr 1 min 35 sec) 
Heartbeat CPU  0 instructions:   91000001 cycles:   60861459 heartbeat IPC: 1.49962 cumulative IPC: 1.49520 (Simulation time: 0 hr 1 min 36 sec) 
Heartbeat CPU  0 instructions:   92000000 cycles:   61435427 heartbeat IPC: 1.74226 cumulative IPC: 1.49751 (Simulation time: 0 hr 1 min 37 sec) 
Heartbeat CPU  0 instructions:   93000002 cycles:   61980572 heartbeat IPC: 1.83438 cumulative IPC: 1.50047 (Simulation time: 0 hr 1 min 39 sec) 
Heartbeat CPU  0 instructions:   94000003 cycles:   62568355 heartbeat IPC: 1.70131 cumulative IPC: 1.50236 (Simulation time: 0 hr 1 min 40 sec) 
Heartbeat CPU  0 instructions:   95000003 cycles:   63403917 heartbeat IPC: 1.19680 cumulative IPC: 1.49833 (Simulation time: 0 hr 1 min 41 sec) 
Heartbeat CPU  0 instructions:   96000000 cycles:   64250959 heartbeat IPC: 1.18058 cumulative IPC: 1.49414 (Simulation time: 0 hr 1 min 41 sec) 
Heartbeat CPU  0 instructions:   97000002 cycles:   64884298 heartbeat IPC: 1.57894 cumulative IPC: 1.49497 (Simulation time: 0 hr 1 min 42 sec) 
Heartbeat CPU  0 instructions:   98000003 cycles:   65522420 heartbeat IPC: 1.56710 cumulative IPC: 1.49567 (Simulation time: 0 hr 1 min 43 sec) 
Heartbeat CPU  0 instructions:   99000002 cycles:   66174410 heartbeat IPC: 1.53376 cumulative IPC: 1.49605 (Simulation time: 0 hr 1 min 44 sec) 
Heartbeat CPU  0 instructions:  100000000 cycles:   66758748 heartbeat IPC: 1.71133 cumulative IPC: 1.49793 (Simulation time: 0 hr 1 min 46 sec) 

Warmup complete CPU  0 instructions:  100000002 cycles:   66758750 (Simulation time: 0 hr 1 min 46 sec) 

Heartbeat CPU  0 instructions:  101000000 cycles:   73178751 heartbeat IPC: 0.15576 cumulative IPC: 0.15576 (Simulation time: 0 hr 1 min 48 sec) 
Heartbeat CPU  0 instructions:  102000001 cycles:   76733100 heartbeat IPC: 0.28135 cumulative IPC: 0.20051 (Simulation time: 0 hr 1 min 50 sec) 
Heartbeat CPU  0 instructions:  103000001 cycles:   80977511 heartbeat IPC: 0.23560 cumulative IPC: 0.21099 (Simulation time: 0 hr 1 min 53 sec) 
Heartbeat CPU  0 instructions:  104000000 cycles:   85388026 heartbeat IPC: 0.22673 cumulative IPC: 0.21472 (Simulation time: 0 hr 1 min 56 sec) 
Heartbeat CPU  0 instructions:  105000003 cycles:   88643470 heartbeat IPC: 0.30718 cumulative IPC: 0.22847 (Simulation time: 0 hr 1 min 58 sec) 
Heartbeat CPU  0 instructions:  106000001 cycles:   91544630 heartbeat IPC: 0.34469 cumulative IPC: 0.24207 (Simulation time: 0 hr 2 min 1 sec) 
Heartbeat CPU  0 instructions:  107000003 cycles:   95393814 heartbeat IPC: 0.25980 cumulative IPC: 0.24446 (Simulation time: 0 hr 2 min 3 sec) 
Heartbeat CPU  0 instructions:  108000000 cycles:   98817075 heartbeat IPC: 0.29212 cumulative IPC: 0.24955 (Simulation time: 0 hr 2 min 4 sec) 
Heartbeat CPU  0 instructions:  109000000 cycles:  102199766 heartbeat IPC: 0.29562 cumulative IPC: 0.25394 (Simulation time: 0 hr 2 min 6 sec) 
Heartbeat CPU  0 instructions:  110000001 cycles:  104369530 heartbeat IPC: 0.46088 cumulative IPC: 0.26588 (Simulation time: 0 hr 2 min 8 sec) 
Heartbeat CPU  0 instructions:  111000000 cycles:  106875220 heartbeat IPC: 0.39909 cumulative IPC: 0.27420 (Simulation time: 0 hr 2 min 10 sec) 
Heartbeat CPU  0 instructions:  112000000 cycles:  108672375 heartbeat IPC: 0.55644 cumulative IPC: 0.28630 (Simulation time: 0 hr 2 min 11 sec) 
Heartbeat CPU  0 instructions:  113000002 cycles:  110473526 heartbeat IPC: 0.55520 cumulative IPC: 0.29738 (Simulation time: 0 hr 2 min 13 sec) 
Heartbeat CPU  0 instructions:  114000000 cycles:  111941910 heartbeat IPC: 0.68102 cumulative IPC: 0.30985 (Simulation time: 0 hr 2 min 15 sec) 
Heartbeat CPU  0 instructions:  115000000 cycles:  114005855 heartbeat IPC: 0.48451 cumulative IPC: 0.31748 (Simulation time: 0 hr 2 min 17 sec) 
Heartbeat CPU  0 instructions:  116000000 cycles:  117837579 heartbeat IPC: 0.26098 cumulative IPC: 0.31324 (Simulation time: 0 hr 2 min 19 sec) 
Heartbeat CPU  0 instructions:  117000000 cycles:  120640786 heartbeat IPC: 0.35673 cumulative IPC: 0.31550 (Simulation time: 0 hr 2 min 21 sec) 
Heartbeat CPU  0 instructions:  118000002 cycles:  123358253 heartbeat IPC: 0.36799 cumulative IPC: 0.31802 (Simulation time: 0 hr 2 min 23 sec) 
Heartbeat CPU  0 instructions:  119000000 cycles:  126708185 heartbeat IPC: 0.29851 cumulative IPC: 0.31693 (Simulation time: 0 hr 2 min 25 sec) 
Heartbeat CPU  0 instructions:  120000000 cycles:  128950329 heartbeat IPC: 0.44600 cumulative IPC: 0.32159 (Simulation time: 0 hr 2 min 27 sec) 
Heartbeat CPU  0 instructions:  121000001 cycles:  133046207 heartbeat IPC: 0.24415 cumulative IPC: 0.31680 (Simulation time: 0 hr 2 min 30 sec) 
Heartbeat CPU  0 instructions:  122000001 cycles:  136418865 heartbeat IPC: 0.29650 cumulative IPC: 0.31582 (Simulation time: 0 hr 2 min 32 sec) 
Heartbeat CPU  0 instructions:  123000000 cycles:  138194719 heartbeat IPC: 0.56311 cumulative IPC: 0.32197 (Simulation time: 0 hr 2 min 33 sec) 
Heartbeat CPU  0 instructions:  124000000 cycles:  139670967 heartbeat IPC: 0.67739 cumulative IPC: 0.32916 (Simulation time: 0 hr 2 min 34 sec) 
Heartbeat CPU  0 instructions:  125000000 cycles:  143647057 heartbeat IPC: 0.25150 cumulative IPC: 0.32515 (Simulation time: 0 hr 2 min 36 sec) 
Heartbeat CPU  0 instructions:  126000002 cycles:  146301179 heartbeat IPC: 0.37677 cumulative IPC: 0.32687 (Simulation time: 0 hr 2 min 38 sec) 
Heartbeat CPU  0 instructions:  127000002 cycles:  149754312 heartbeat IPC: 0.28959 cumulative IPC: 0.32532 (Simulation time: 0 hr 2 min 40 sec) 
Heartbeat CPU  0 instructions:  128000000 cycles:  153144219 heartbeat IPC: 0.29499 cumulative IPC: 0.32413 (Simulation time: 0 hr 2 min 42 sec) 
Heartbeat CPU  0 instructions:  129000001 cycles:  155492985 heartbeat IPC: 0.42576 cumulative IPC: 0.32682 (Simulation time: 0 hr 2 min 44 sec) 
Heartbeat CPU  0 instructions:  130000000 cycles:  160403204 heartbeat IPC: 0.20366 cumulative IPC: 0.32036 (Simulation time: 0 hr 2 min 47 sec) 
Heartbeat CPU  0 instructions:  131000000 cycles:  162344150 heartbeat IPC: 0.51521 cumulative IPC: 0.32432 (Simulation time: 0 hr 2 min 48 sec) 
Heartbeat CPU  0 instructions:  132000000 cycles:  164031109 heartbeat IPC: 0.59278 cumulative IPC: 0.32897 (Simulation time: 0 hr 2 min 49 sec) 
Heartbeat CPU  0 instructions:  133000000 cycles:  166262233 heartbeat IPC: 0.44820 cumulative IPC: 0.33165 (Simulation time: 0 hr 2 min 50 sec) 
Heartbeat CPU  0 instructions:  134000000 cycles:  169993184 heartbeat IPC: 0.26803 cumulative IPC: 0.32935 (Simulation time: 0 hr 2 min 53 sec) 
Heartbeat CPU  0 instructions:  135000002 cycles:  173374064 heartbeat IPC: 0.29578 cumulative IPC: 0.32828 (Simulation time: 0 hr 2 min 55 sec) 
Heartbeat CPU  0 instructions:  136000000 cycles:  175651834 heartbeat IPC: 0.43903 cumulative IPC: 0.33060 (Simulation time: 0 hr 2 min 57 sec) 
Heartbeat CPU  0 instructions:  137000000 cycles:  179064185 heartbeat IPC: 0.29305 cumulative IPC: 0.32946 (Simulation time: 0 hr 2 min 59 sec) 
Heartbeat CPU  0 instructions:  138000003 cycles:  182039027 heartbeat IPC: 0.33615 cumulative IPC: 0.32963 (Simulation time: 0 hr 3 min 1 sec) 
Heartbeat CPU  0 instructions:  139000000 cycles:  186381101 heartbeat IPC: 0.23030 cumulative IPC: 0.32603 (Simulation time: 0 hr 3 min 4 sec) 
Heartbeat CPU  0 instructions:  140000000 cycles:  188166298 heartbeat IPC: 0.56016 cumulative IPC: 0.32947 (Simulation time: 0 hr 3 min 5 sec) 
Heartbeat CPU  0 instructions:  141000000 cycles:  189766700 heartbeat IPC: 0.62484 cumulative IPC: 0.33331 (Simulation time: 0 hr 3 min 6 sec) 
Heartbeat CPU  0 instructions:  142000000 cycles:  192735200 heartbeat IPC: 0.33687 cumulative IPC: 0.33340 (Simulation time: 0 hr 3 min 7 sec) 
Heartbeat CPU  0 instructions:  143000000 cycles:  195663287 heartbeat IPC: 0.34152 cumulative IPC: 0.33358 (Simulation time: 0 hr 3 min 9 sec) 
Heartbeat CPU  0 instructions:  144000000 cycles:  199417893 heartbeat IPC: 0.26634 cumulative IPC: 0.33168 (Simulation time: 0 hr 3 min 12 sec) 
Heartbeat CPU  0 instructions:  145000002 cycles:  202036365 heartbeat IPC: 0.38190 cumulative IPC: 0.33265 (Simulation time: 0 hr 3 min 14 sec) 
Heartbeat CPU  0 instructions:  146000003 cycles:  204707282 heartbeat IPC: 0.37440 cumulative IPC: 0.33346 (Simulation time: 0 hr 3 min 15 sec) 
Heartbeat CPU  0 instructions:  147000002 cycles:  208586875 heartbeat IPC: 0.25776 cumulative IPC: 0.33139 (Simulation time: 0 hr 3 min 18 sec) 
Heartbeat CPU  0 instructions:  148000000 cycles:  212202701 heartbeat IPC: 0.27656 cumulative IPC: 0.33002 (Simulation time: 0 hr 3 min 20 sec) 
Heartbeat CPU  0 instructions:  149000000 cycles:  213987571 heartbeat IPC: 0.56026 cumulative IPC: 0.33282 (Simulation time: 0 hr 3 min 21 sec) 
Heartbeat CPU  0 instructions:  150000002 cycles:  215506930 heartbeat IPC: 0.65817 cumulative IPC: 0.33614 (Simulation time: 0 hr 3 min 22 sec) 
Heartbeat CPU  0 instructions:  151000000 cycles:  219134881 heartbeat IPC: 0.27564 cumulative IPC: 0.33470 (Simulation time: 0 hr 3 min 24 sec) 
Heartbeat CPU  0 instructions:  152000000 cycles:  221747885 heartbeat IPC: 0.38270 cumulative IPC: 0.33551 (Simulation time: 0 hr 3 min 26 sec) 
Heartbeat CPU  0 instructions:  153000000 cycles:  224991189 heartbeat IPC: 0.30833 cumulative IPC: 0.33495 (Simulation time: 0 hr 3 min 28 sec) 
Heartbeat CPU  0 instructions:  154000002 cycles:  228523421 heartbeat IPC: 0.28311 cumulative IPC: 0.33382 (Simulation time: 0 hr 3 min 30 sec) 
Heartbeat CPU  0 instructions:  155000002 cycles:  230397174 heartbeat IPC: 0.53369 cumulative IPC: 0.33611 (Simulation time: 0 hr 3 min 32 sec) 
Heartbeat CPU  0 instructions:  156000000 cycles:  234979009 heartbeat IPC: 0.21825 cumulative IPC: 0.33290 (Simulation time: 0 hr 3 min 35 sec) 
Heartbeat CPU  0 instructions:  157000000 cycles:  238037930 heartbeat IPC: 0.32691 cumulative IPC: 0.33279 (Simulation time: 0 hr 3 min 37 sec) 
Heartbeat CPU  0 instructions:  158000003 cycles:  239807453 heartbeat IPC: 0.56513 cumulative IPC: 0.33517 (Simulation time: 0 hr 3 min 38 sec) 
Heartbeat CPU  0 instructions:  159000000 cycles:  241260625 heartbeat IPC: 0.68815 cumulative IPC: 0.33811 (Simulation time: 0 hr 3 min 39 sec) 
Heartbeat CPU  0 instructions:  160000000 cycles:  245761514 heartbeat IPC: 0.22218 cumulative IPC: 0.33519 (Simulation time: 0 hr 3 min 41 sec) 
Heartbeat CPU  0 instructions:  161000003 cycles:  248242929 heartbeat IPC: 0.40300 cumulative IPC: 0.33612 (Simulation time: 0 hr 3 min 43 sec) 
Heartbeat CPU  0 instructions:  162000001 cycles:  251261693 heartbeat IPC: 0.33126 cumulative IPC: 0.33604 (Simulation time: 0 hr 3 min 45 sec) 
Heartbeat CPU  0 instructions:  163000000 cycles:  254699330 heartbeat IPC: 0.29090 cumulative IPC: 0.33521 (Simulation time: 0 hr 3 min 47 sec) 
Heartbeat CPU  0 instructions:  164000000 cycles:  257068315 heartbeat IPC: 0.42212 cumulative IPC: 0.33629 (Simulation time: 0 hr 3 min 49 sec) 
Heartbeat CPU  0 instructions:  165000001 cycles:  261924633 heartbeat IPC: 0.20592 cumulative IPC: 0.33305 (Simulation time: 0 hr 3 min 52 sec) 
Heartbeat CPU  0 instructions:  166000000 cycles:  263925135 heartbeat IPC: 0.49987 cumulative IPC: 0.33474 (Simulation time: 0 hr 3 min 53 sec) 
Heartbeat CPU  0 instructions:  167000001 cycles:  265617184 heartbeat IPC: 0.59100 cumulative IPC: 0.33692 (Simulation time: 0 hr 3 min 54 sec) 
Heartbeat CPU  0 instructions:  168000000 cycles:  267819753 heartbeat IPC: 0.45401 cumulative IPC: 0.33821 (Simulation time: 0 hr 3 min 56 sec) 
Heartbeat CPU  0 instructions:  169000001 cycles:  271558875 heartbeat IPC: 0.26744 cumulative IPC: 0.33691 (Simulation time: 0 hr 3 min 58 sec) 
Heartbeat CPU  0 instructions:  170000002 cycles:  274929323 heartbeat IPC: 0.29670 cumulative IPC: 0.33626 (Simulation time: 0 hr 4 min 0 sec) 
Heartbeat CPU  0 instructions:  171000000 cycles:  277208290 heartbeat IPC: 0.43879 cumulative IPC: 0.33737 (Simulation time: 0 hr 4 min 2 sec) 
Heartbeat CPU  0 instructions:  172000000 cycles:  280611420 heartbeat IPC: 0.29385 cumulative IPC: 0.33668 (Simulation time: 0 hr 4 min 4 sec) 
Heartbeat CPU  0 instructions:  173000000 cycles:  283551388 heartbeat IPC: 0.34014 cumulative IPC: 0.33673 (Simulation time: 0 hr 4 min 6 sec) 
Heartbeat CPU  0 instructions:  174000000 cycles:  287939337 heartbeat IPC: 0.22790 cumulative IPC: 0.33457 (Simulation time: 0 hr 4 min 9 sec) 
Heartbeat CPU  0 instructions:  175000000 cycles:  289725216 heartbeat IPC: 0.55995 cumulative IPC: 0.33637 (Simulation time: 0 hr 4 min 10 sec) 
Heartbeat CPU  0 instructions:  176000000 cycles:  291330675 heartbeat IPC: 0.62287 cumulative IPC: 0.33842 (Simulation time: 0 hr 4 min 11 sec) 
Heartbeat CPU  0 instructions:  177000002 cycles:  294239450 heartbeat IPC: 0.34379 cumulative IPC: 0.33849 (Simulation time: 0 hr 4 min 13 sec) 
Heartbeat CPU  0 instructions:  178000001 cycles:  297232484 heartbeat IPC: 0.33411 cumulative IPC: 0.33843 (Simulation time: 0 hr 4 min 15 sec) 
Heartbeat CPU  0 instructions:  179000003 cycles:  300998165 heartbeat IPC: 0.26556 cumulative IPC: 0.33726 (Simulation time: 0 hr 4 min 17 sec) 
Heartbeat CPU  0 instructions:  180000000 cycles:  304291952 heartbeat IPC: 0.30360 cumulative IPC: 0.33680 (Simulation time: 0 hr 4 min 19 sec) 
Heartbeat CPU  0 instructions:  181000003 cycles:  306281399 heartbeat IPC: 0.50265 cumulative IPC: 0.33817 (Simulation time: 0 hr 4 min 21 sec) 
Heartbeat CPU  0 instructions:  182000000 cycles:  310723284 heartbeat IPC: 0.22513 cumulative IPC: 0.33611 (Simulation time: 0 hr 4 min 24 sec) 
Heartbeat CPU  0 instructions:  183000000 cycles:  313911114 heartbeat IPC: 0.31369 cumulative IPC: 0.33583 (Simulation time: 0 hr 4 min 25 sec) 
Heartbeat CPU  0 instructions:  184000000 cycles:  315680130 heartbeat IPC: 0.56529 cumulative IPC: 0.33746 (Simulation time: 0 hr 4 min 26 sec) 
Heartbeat CPU  0 instructions:  185000002 cycles:  317126665 heartbeat IPC: 0.69131 cumulative IPC: 0.33950 (Simulation time: 0 hr 4 min 27 sec) 
Heartbeat CPU  0 instructions:  186000000 cycles:  321463584 heartbeat IPC: 0.23058 cumulative IPC: 0.33765 (Simulation time: 0 hr 4 min 30 sec) 
Heartbeat CPU  0 instructions:  187000000 cycles:  324032833 heartbeat IPC: 0.38922 cumulative IPC: 0.33816 (Simulation time: 0 hr 4 min 32 sec) 
Heartbeat CPU  0 instructions:  188000000 cycles:  326767131 heartbeat IPC: 0.36572 cumulative IPC: 0.33845 (Simulation time: 0 hr 4 min 34 sec) 
Heartbeat CPU  0 instructions:  189000000 cycles:  330342258 heartbeat IPC: 0.27971 cumulative IPC: 0.33765 (Simulation time: 0 hr 4 min 36 sec) 
Heartbeat CPU  0 instructions:  190000001 cycles:  332384687 heartbeat IPC: 0.48961 cumulative IPC: 0.33882 (Simulation time: 0 hr 4 min 37 sec) 
Heartbeat CPU  0 instructions:  191000002 cycles:  337207099 heartbeat IPC: 0.20737 cumulative IPC: 0.33648 (Simulation time: 0 hr 4 min 40 sec) 
Heartbeat CPU  0 instructions:  192000000 cycles:  339719213 heartbeat IPC: 0.39807 cumulative IPC: 0.33705 (Simulation time: 0 hr 4 min 42 sec) 
Heartbeat CPU  0 instructions:  193000003 cycles:  341451060 heartbeat IPC: 0.57742 cumulative IPC: 0.33856 (Simulation time: 0 hr 4 min 43 sec) 
Heartbeat CPU  0 instructions:  194000001 cycles:  343200954 heartbeat IPC: 0.57146 cumulative IPC: 0.34003 (Simulation time: 0 hr 4 min 44 sec) 
Heartbeat CPU  0 instructions:  195000001 cycles:  347411339 heartbeat IPC: 0.23751 cumulative IPC: 0.33850 (Simulation time: 0 hr 4 min 46 sec) 
Heartbeat CPU  0 instructions:  196000000 cycles:  350347105 heartbeat IPC: 0.34063 cumulative IPC: 0.33852 (Simulation time: 0 hr 4 min 48 sec) 
Heartbeat CPU  0 instructions:  197000000 cycles:  352879963 heartbeat IPC: 0.39481 cumulative IPC: 0.33902 (Simulation time: 0 hr 4 min 50 sec) 
Heartbeat CPU  0 instructions:  198000000 cycles:  356290918 heartbeat IPC: 0.29317 cumulative IPC: 0.33848 (Simulation time: 0 hr 4 min 52 sec) 
Heartbeat CPU  0 instructions:  199000002 cycles:  358815492 heartbeat IPC: 0.39611 cumulative IPC: 0.33898 (Simulation time: 0 hr 4 min 54 sec) 
Heartbeat CPU  0 instructions:  200000000 cycles:  363718608 heartbeat IPC: 0.20395 cumulative IPC: 0.33675 (Simulation time: 0 hr 4 min 57 sec) 
Finished CPU 0 instructions: 100000000 cycles: 296959871 cumulative IPC: 0.33675 (Simulation time: 0 hr 4 min 57 sec) 

ChampSim completed all CPUs

[ROI Statistics]
Core_0_instructions 100000000
Core_0_cycles 296959871
Core_0_IPC 0.33675

Core_0_branch_prediction_accuracy 95.09858
Core_0_branch_MPKI 8.66907
Core_0_average_ROB_occupancy_at_mispredict 83.05596

Core_0_L1D_total_access 20588509
Core_0_L1D_total_hit 15359860
Core_0_L1D_total_miss 5228649
Core_0_L1D_loads 15109082
Core_0_L1D_load_hit 10708960
Core_0_L1D_load_miss 4400122
Core_0_L1D_RFOs 5479427
Core_0_L1D_RFO_hit 4650900
Core_0_L1D_RFO_miss 828527
Core_0_L1D_prefetches 0
Core_0_L1D_prefetch_hit 0
Core_0_L1D_prefetch_miss 0
Core_0_L1D_writebacks 0
Core_0_L1D_writeback_hit 0
Core_0_L1D_writeback_miss 0
Core_0_L1D_prefetch_requested 0
Core_0_L1D_prefetch_issued 0
Core_0_L1D_prefetch_useful 0
Core_0_L1D_prefetch_useless 0
Core_0_L1D_prefetch_late 0
Core_0_L1D_average_miss_latency 118.95660

Core_0_L1I_total_access 20993649
Core_0_L1I_total_hit 20993017
Core_0_L1I_total_miss 632
Core_0_L1I_loads 20993649
Core_0_L1I_load_hit 20993017
Core_0_L1I_load_miss 632
Core_0_L1I_RFOs 0
Core_0_L1I_RFO_hit 0
Core_0_L1I_RFO_miss 0
Core_0_L1I_prefetches 0
Core_0_L1I_prefetch_hit 0
Core_0_L1I_prefetch_miss 0
Core_0_L1I_writebacks 0
Core_0_L1I_writeback_hit 0
Core_0_L1I_writeback_miss 0
Core_0_L1I_prefetch_requested 0
Core_0_L1I_prefetch_issued 0
Core_0_L1I_prefetch_useful 0
Core_0_L1I_prefetch_useless 0
Core_0_L1I_prefetch_late 0
Core_0_L1I_average_miss_latency 187.34810

Core_0_L2C_total_access 11311445
Core_0_L2C_total_hit 6528243
Core_0_L2C_total_miss 4783202
Core_0_L2C_loads 4400152
Core_0_L2C_load_hit 2319688
Core_0_L2C_load_miss 2080464
Core_0_L2C_RFOs 828437
Core_0_L2C_RFO_hit 137007
Core_0_L2C_RFO_miss 691430
Core_0_L2C_prefetches 3701986
Core_0_L2C_prefetch_hit 1690769
Core_0_L2C_prefetch_miss 2011217
Core_0_L2C_writebacks 2380870
Core_0_L2C_writeback_hit 2380779
Core_0_L2C_writeback_miss 91
Core_0_L2C_prefetch_requested 9007487
Core_0_L2C_prefetch_issued 8866430
Core_0_L2C_prefetch_useful 2977751
Core_0_L2C_prefetch_useless 1698539
Core_0_L2C_prefetch_late 324835
Core_0_L2C_average_miss_latency 170.31568

Core_0_LLC_total_access 8629788
Core_0_LLC_total_hit 4796247
Core_0_LLC_total_miss 3833541
Core_0_LLC_loads 1788805
Core_0_LLC_load_hit 790325
Core_0_LLC_load_miss 998480
Core_0_LLC_RFOs 691375
Core_0_LLC_RFO_hit 121475
Core_0_LLC_RFO_miss 569900
Core_0_LLC_prefetches 4522249
Core_0_LLC_prefetch_hit 2513678
Core_0_LLC_prefetch_miss 2008571
Core_0_LLC_writebacks 1627359
Core_0_LLC_writeback_hit 1370769
Core_0_LLC_writeback_miss 256590
Core_0_LLC_prefetch_requested 7542305
Core_0_LLC_prefetch_issued 7424307
Core_0_LLC_prefetch_useful 832468
Core_0_LLC_prefetch_useless 3660789
Core_0_LLC_prefetch_late 43246
Core_0_LLC_average_miss_latency 250.08293

Core_0_major_page_fault 0
Core_0_minor_page_fault 12935

CPU 0 L2C next line prefetcher final stats
LLC Next Line Prefetcher Final Stats: none
Channel_0_RQ_row_buffer_hit 798675
Channel_0_RQ_row_buffer_miss 2777054
Channel_0_WQ_row_buffer_hit 380993
Channel_0_WQ_row_buffer_miss 712834
Channel_0_WQ_full 0
Channel_0_dbus_congested 2388823

avg_congested_cycle 10
