*************************************************
   ChampSim Multicore Out-of-Order Simulator
   Last compiled: Dec 24 2023 15:19:11
*************************************************

trace_0 ./test_trace/450.soplex-247B.champsimtrace.xz
CPU 0 L1D next line prefetcher
CPU 0 L2C IP-based stride prefetcher
Initialize DRRIP state
Assign rand_sets[0]: 454  LLC: 2048
rand_sets[0]: 454
Assign rand_sets[1]: 1662  LLC: 2048
rand_sets[1]: 1662
Assign rand_sets[2]: 1921  LLC: 2048
rand_sets[2]: 1921
Assign rand_sets[3]: 1131  LLC: 2048
rand_sets[3]: 1131
Assign rand_sets[4]: 331  LLC: 2048
rand_sets[4]: 331
Assign rand_sets[5]: 1531  LLC: 2048
rand_sets[5]: 1531
Assign rand_sets[6]: 482  LLC: 2048
rand_sets[6]: 482
Assign rand_sets[7]: 1275  LLC: 2048
rand_sets[7]: 1275
Assign rand_sets[8]: 1876  LLC: 2048
rand_sets[8]: 1876
Assign rand_sets[9]: 2038  LLC: 2048
rand_sets[9]: 2038
Assign rand_sets[10]: 701  LLC: 2048
rand_sets[10]: 701
Assign rand_sets[11]: 479  LLC: 2048
rand_sets[11]: 479
Assign rand_sets[12]: 892  LLC: 2048
rand_sets[12]: 892
Assign rand_sets[13]: 1820  LLC: 2048
rand_sets[13]: 1820
Assign rand_sets[14]: 1505  LLC: 2048
rand_sets[14]: 1505
Assign rand_sets[15]: 1159  LLC: 2048
rand_sets[15]: 1159
Assign rand_sets[16]: 513  LLC: 2048
rand_sets[16]: 513
Assign rand_sets[17]: 703  LLC: 2048
rand_sets[17]: 703
Assign rand_sets[18]: 561  LLC: 2048
rand_sets[18]: 561
Assign rand_sets[19]: 990  LLC: 2048
rand_sets[19]: 990
Assign rand_sets[20]: 342  LLC: 2048
rand_sets[20]: 342
Assign rand_sets[21]: 882  LLC: 2048
rand_sets[21]: 882
Assign rand_sets[22]: 15  LLC: 2048
rand_sets[22]: 15
Assign rand_sets[23]: 71  LLC: 2048
rand_sets[23]: 71
Assign rand_sets[24]: 1127  LLC: 2048
rand_sets[24]: 1127
Assign rand_sets[25]: 1382  LLC: 2048
rand_sets[25]: 1382
Assign rand_sets[26]: 647  LLC: 2048
rand_sets[26]: 647
Assign rand_sets[27]: 857  LLC: 2048
rand_sets[27]: 857
Assign rand_sets[28]: 1450  LLC: 2048
rand_sets[28]: 1450
Assign rand_sets[29]: 1160  LLC: 2048
rand_sets[29]: 1160
Assign rand_sets[30]: 1852  LLC: 2048
rand_sets[30]: 1852
Assign rand_sets[31]: 1881  LLC: 2048
rand_sets[31]: 1881
Assign rand_sets[32]: 1770  LLC: 2048
rand_sets[32]: 1770
Assign rand_sets[33]: 1622  LLC: 2048
rand_sets[33]: 1622
Assign rand_sets[34]: 275  LLC: 2048
rand_sets[34]: 275
Assign rand_sets[35]: 635  LLC: 2048
rand_sets[35]: 635
Assign rand_sets[36]: 466  LLC: 2048
rand_sets[36]: 466
Assign rand_sets[37]: 1413  LLC: 2048
rand_sets[37]: 1413
Assign rand_sets[38]: 417  LLC: 2048
rand_sets[38]: 417
Assign rand_sets[39]: 472  LLC: 2048
rand_sets[39]: 472
Assign rand_sets[40]: 1340  LLC: 2048
rand_sets[40]: 1340
Assign rand_sets[41]: 852  LLC: 2048
rand_sets[41]: 852
Assign rand_sets[42]: 1365  LLC: 2048
rand_sets[42]: 1365
Assign rand_sets[43]: 47  LLC: 2048
rand_sets[43]: 47
Assign rand_sets[44]: 823  LLC: 2048
rand_sets[44]: 823
Assign rand_sets[45]: 686  LLC: 2048
rand_sets[45]: 686
Assign rand_sets[46]: 1637  LLC: 2048
rand_sets[46]: 1637
Assign rand_sets[47]: 1115  LLC: 2048
rand_sets[47]: 1115
Assign rand_sets[48]: 986  LLC: 2048
rand_sets[48]: 986
Assign rand_sets[49]: 258  LLC: 2048
rand_sets[49]: 258
Assign rand_sets[50]: 633  LLC: 2048
rand_sets[50]: 633
Assign rand_sets[51]: 920  LLC: 2048
rand_sets[51]: 920
Assign rand_sets[52]: 204  LLC: 2048
rand_sets[52]: 204
Assign rand_sets[53]: 227  LLC: 2048
rand_sets[53]: 227
Assign rand_sets[54]: 1818  LLC: 2048
rand_sets[54]: 1818
Assign rand_sets[55]: 886  LLC: 2048
rand_sets[55]: 886
Assign rand_sets[56]: 1422  LLC: 2048
rand_sets[56]: 1422
Assign rand_sets[57]: 607  LLC: 2048
rand_sets[57]: 607
Assign rand_sets[58]: 217  LLC: 2048
rand_sets[58]: 217
Assign rand_sets[59]: 1945  LLC: 2048
rand_sets[59]: 1945
Assign rand_sets[60]: 143  LLC: 2048
rand_sets[60]: 143
Assign rand_sets[61]: 1311  LLC: 2048
rand_sets[61]: 1311
Assign rand_sets[62]: 319  LLC: 2048
rand_sets[62]: 319
Assign rand_sets[63]: 1846  LLC: 2048
rand_sets[63]: 1846
LLC Next Line Prefetcher
warmup_instructions 100000000
simulation_instructions 100000000
champsim_seed 223

num_cpus 1
cpu_freq 4000
dram_io_freq 2400
page_size 4096
block_size 64
max_read_per_cycle 8
max_fill_per_cycle 1
dram_channels 1
dram_ranks 1
dram_banks 8
dram_rows 65536
dram_columns 128
dram_row_size 8
dram_size 4096
dram_pages 1048576

fetch_width 6
decode_width 6
exec_width 4
lq_width 2
sq_width 2
retire_width 4
scheduler_size 128
branch_mispredict_penalty 20
rob_size 256
lq_size 72
sq_size 56
num_instr_destinations_sparc 4
num_instr_destinations 2
num_instr_sources 4

itlb_set 16
itlb_way 8
itlb_rq_size 16
itlb_wq_size 16
itlb_pq_size 0
itlb_mshr_size 8
itlb_latency 1

dtlb_set 16
dtlb_way 4
dtlb_rq_size 16
dtlb_wq_size 16
dtlb_pq_size 0
dtlb_mshr_size 8
dtlb_latency 1

stlb_set 128
stlb_way 12
stlb_rq_size 32
stlb_wq_size 32
stlb_pq_size 0
stlb_mshr_size 16
stlb_latency 8

l1i_size 32
l1i_set 64
l1i_way 8
l1i_rq_size 64
l1i_wq_size 64
l1i_pq_size 8
l1i_mshr_size 8
l1i_latency 1

l1d_size 32
l1d_set 64
l1d_way 8
l1d_rq_size 64
l1d_wq_size 64
l1d_pq_size 8
l1d_mshr_size 16
l1d_latency 4

l2c_size 512
l2c_set 1024
l2c_way 8
l2c_rq_size 32
l2c_wq_size 32
l2c_pq_size 16
l2c_mshr_size 32
l2c_latency 10

llc_size 2048
llc_set 2048
llc_way 16
llc_rq_size 32
llc_wq_size 32
llc_pq_size 32
llc_mshr_size 64
llc_latency 20

dram_channel_width 8
dram_wq_size 64
dram_rq_size 64
tRP 15
tRCD 15
tCAS 12.5
dram_dbus_turn_around_time 30
dram_write_high_wm 56
dram_write_low_wm 48
min_dram_writes_per_switch 16
dram_mtps 2400
dram_dbus_return_time 13


Heartbeat CPU  0 instructions:    1000002 cycles:     752617 heartbeat IPC: 1.32870 cumulative IPC: 1.32870 (Simulation time: 0 hr 0 min 1 sec) 
Heartbeat CPU  0 instructions:    2000001 cycles:    1391128 heartbeat IPC: 1.56614 cumulative IPC: 1.43768 (Simulation time: 0 hr 0 min 2 sec) 
Heartbeat CPU  0 instructions:    3000001 cycles:    2115775 heartbeat IPC: 1.37998 cumulative IPC: 1.41792 (Simulation time: 0 hr 0 min 4 sec) 
Heartbeat CPU  0 instructions:    4000000 cycles:    2656837 heartbeat IPC: 1.84822 cumulative IPC: 1.50555 (Simulation time: 0 hr 0 min 5 sec) 
Heartbeat CPU  0 instructions:    5000000 cycles:    3562181 heartbeat IPC: 1.10455 cumulative IPC: 1.40363 (Simulation time: 0 hr 0 min 6 sec) 
Heartbeat CPU  0 instructions:    6000001 cycles:    4450309 heartbeat IPC: 1.12596 cumulative IPC: 1.34822 (Simulation time: 0 hr 0 min 7 sec) 
Heartbeat CPU  0 instructions:    7000000 cycles:    5246828 heartbeat IPC: 1.25546 cumulative IPC: 1.33414 (Simulation time: 0 hr 0 min 9 sec) 
Heartbeat CPU  0 instructions:    8000000 cycles:    5936243 heartbeat IPC: 1.45051 cumulative IPC: 1.34765 (Simulation time: 0 hr 0 min 10 sec) 
Heartbeat CPU  0 instructions:    9000001 cycles:    6552639 heartbeat IPC: 1.62234 cumulative IPC: 1.37349 (Simulation time: 0 hr 0 min 12 sec) 
Heartbeat CPU  0 instructions:   10000000 cycles:    7095064 heartbeat IPC: 1.84357 cumulative IPC: 1.40943 (Simulation time: 0 hr 0 min 13 sec) 
Heartbeat CPU  0 instructions:   11000003 cycles:    7681533 heartbeat IPC: 1.70513 cumulative IPC: 1.43201 (Simulation time: 0 hr 0 min 14 sec) 
Heartbeat CPU  0 instructions:   12000000 cycles:    8350130 heartbeat IPC: 1.49566 cumulative IPC: 1.43710 (Simulation time: 0 hr 0 min 15 sec) 
Heartbeat CPU  0 instructions:   13000000 cycles:    9227852 heartbeat IPC: 1.13931 cumulative IPC: 1.40878 (Simulation time: 0 hr 0 min 16 sec) 
Heartbeat CPU  0 instructions:   14000002 cycles:    9973704 heartbeat IPC: 1.34075 cumulative IPC: 1.40369 (Simulation time: 0 hr 0 min 17 sec) 
Heartbeat CPU  0 instructions:   15000002 cycles:   10559037 heartbeat IPC: 1.70843 cumulative IPC: 1.42058 (Simulation time: 0 hr 0 min 18 sec) 
Heartbeat CPU  0 instructions:   16000000 cycles:   11079602 heartbeat IPC: 1.92099 cumulative IPC: 1.44410 (Simulation time: 0 hr 0 min 19 sec) 
Heartbeat CPU  0 instructions:   17000000 cycles:   11886635 heartbeat IPC: 1.23911 cumulative IPC: 1.43018 (Simulation time: 0 hr 0 min 20 sec) 
Heartbeat CPU  0 instructions:   18000001 cycles:   12474394 heartbeat IPC: 1.70138 cumulative IPC: 1.44296 (Simulation time: 0 hr 0 min 22 sec) 
Heartbeat CPU  0 instructions:   19000001 cycles:   13010425 heartbeat IPC: 1.86556 cumulative IPC: 1.46037 (Simulation time: 0 hr 0 min 23 sec) 
Heartbeat CPU  0 instructions:   20000000 cycles:   13601608 heartbeat IPC: 1.69152 cumulative IPC: 1.47041 (Simulation time: 0 hr 0 min 24 sec) 
Heartbeat CPU  0 instructions:   21000001 cycles:   14251421 heartbeat IPC: 1.53891 cumulative IPC: 1.47354 (Simulation time: 0 hr 0 min 25 sec) 
Heartbeat CPU  0 instructions:   22000003 cycles:   15127173 heartbeat IPC: 1.14188 cumulative IPC: 1.45434 (Simulation time: 0 hr 0 min 26 sec) 
Heartbeat CPU  0 instructions:   23000001 cycles:   15891519 heartbeat IPC: 1.30831 cumulative IPC: 1.44731 (Simulation time: 0 hr 0 min 27 sec) 
Heartbeat CPU  0 instructions:   24000000 cycles:   16475326 heartbeat IPC: 1.71289 cumulative IPC: 1.45672 (Simulation time: 0 hr 0 min 28 sec) 
Heartbeat CPU  0 instructions:   25000000 cycles:   17008905 heartbeat IPC: 1.87414 cumulative IPC: 1.46982 (Simulation time: 0 hr 0 min 29 sec) 
Heartbeat CPU  0 instructions:   26000001 cycles:   17805788 heartbeat IPC: 1.25489 cumulative IPC: 1.46020 (Simulation time: 0 hr 0 min 30 sec) 
Heartbeat CPU  0 instructions:   27000003 cycles:   18360339 heartbeat IPC: 1.80326 cumulative IPC: 1.47056 (Simulation time: 0 hr 0 min 32 sec) 
Heartbeat CPU  0 instructions:   28000000 cycles:   18913848 heartbeat IPC: 1.80665 cumulative IPC: 1.48040 (Simulation time: 0 hr 0 min 33 sec) 
Heartbeat CPU  0 instructions:   29000002 cycles:   19467130 heartbeat IPC: 1.80740 cumulative IPC: 1.48969 (Simulation time: 0 hr 0 min 34 sec) 
Heartbeat CPU  0 instructions:   30000001 cycles:   20044263 heartbeat IPC: 1.73270 cumulative IPC: 1.49669 (Simulation time: 0 hr 0 min 35 sec) 
Heartbeat CPU  0 instructions:   31000002 cycles:   20909284 heartbeat IPC: 1.15604 cumulative IPC: 1.48260 (Simulation time: 0 hr 0 min 36 sec) 
Heartbeat CPU  0 instructions:   32000000 cycles:   21727335 heartbeat IPC: 1.22242 cumulative IPC: 1.47280 (Simulation time: 0 hr 0 min 37 sec) 
Heartbeat CPU  0 instructions:   33000000 cycles:   22318302 heartbeat IPC: 1.69214 cumulative IPC: 1.47861 (Simulation time: 0 hr 0 min 38 sec) 
Heartbeat CPU  0 instructions:   34000000 cycles:   22919171 heartbeat IPC: 1.66426 cumulative IPC: 1.48347 (Simulation time: 0 hr 0 min 39 sec) 
Heartbeat CPU  0 instructions:   35000000 cycles:   23642507 heartbeat IPC: 1.38248 cumulative IPC: 1.48038 (Simulation time: 0 hr 0 min 40 sec) 
Heartbeat CPU  0 instructions:   36000000 cycles:   24226255 heartbeat IPC: 1.71307 cumulative IPC: 1.48599 (Simulation time: 0 hr 0 min 41 sec) 
Heartbeat CPU  0 instructions:   37000001 cycles:   24763616 heartbeat IPC: 1.86095 cumulative IPC: 1.49413 (Simulation time: 0 hr 0 min 43 sec) 
Heartbeat CPU  0 instructions:   38000002 cycles:   25328704 heartbeat IPC: 1.76964 cumulative IPC: 1.50027 (Simulation time: 0 hr 0 min 44 sec) 
Heartbeat CPU  0 instructions:   39000000 cycles:   25900625 heartbeat IPC: 1.74849 cumulative IPC: 1.50576 (Simulation time: 0 hr 0 min 45 sec) 
Heartbeat CPU  0 instructions:   40000000 cycles:   26669818 heartbeat IPC: 1.30006 cumulative IPC: 1.49982 (Simulation time: 0 hr 0 min 46 sec) 
Heartbeat CPU  0 instructions:   41000001 cycles:   27532608 heartbeat IPC: 1.15903 cumulative IPC: 1.48914 (Simulation time: 0 hr 0 min 47 sec) 
Heartbeat CPU  0 instructions:   42000001 cycles:   28181597 heartbeat IPC: 1.54086 cumulative IPC: 1.49033 (Simulation time: 0 hr 0 min 48 sec) 
Heartbeat CPU  0 instructions:   43000000 cycles:   28798397 heartbeat IPC: 1.62127 cumulative IPC: 1.49314 (Simulation time: 0 hr 0 min 49 sec) 
Heartbeat CPU  0 instructions:   44000000 cycles:   29422781 heartbeat IPC: 1.60158 cumulative IPC: 1.49544 (Simulation time: 0 hr 0 min 50 sec) 
Heartbeat CPU  0 instructions:   45000000 cycles:   30136108 heartbeat IPC: 1.40188 cumulative IPC: 1.49323 (Simulation time: 0 hr 0 min 51 sec) 
Heartbeat CPU  0 instructions:   46000001 cycles:   30669245 heartbeat IPC: 1.87569 cumulative IPC: 1.49987 (Simulation time: 0 hr 0 min 53 sec) 
Heartbeat CPU  0 instructions:   47000000 cycles:   31226594 heartbeat IPC: 1.79421 cumulative IPC: 1.50513 (Simulation time: 0 hr 0 min 54 sec) 
Heartbeat CPU  0 instructions:   48000000 cycles:   31805239 heartbeat IPC: 1.72818 cumulative IPC: 1.50919 (Simulation time: 0 hr 0 min 55 sec) 
Heartbeat CPU  0 instructions:   49000001 cycles:   32538386 heartbeat IPC: 1.36398 cumulative IPC: 1.50591 (Simulation time: 0 hr 0 min 56 sec) 
Heartbeat CPU  0 instructions:   50000001 cycles:   33403578 heartbeat IPC: 1.15581 cumulative IPC: 1.49685 (Simulation time: 0 hr 0 min 57 sec) 
Heartbeat CPU  0 instructions:   51000003 cycles:   34095583 heartbeat IPC: 1.44508 cumulative IPC: 1.49580 (Simulation time: 0 hr 0 min 58 sec) 
Heartbeat CPU  0 instructions:   52000000 cycles:   34680877 heartbeat IPC: 1.70854 cumulative IPC: 1.49939 (Simulation time: 0 hr 0 min 59 sec) 
Heartbeat CPU  0 instructions:   53000000 cycles:   35256594 heartbeat IPC: 1.73696 cumulative IPC: 1.50326 (Simulation time: 0 hr 1 min 0 sec) 
Heartbeat CPU  0 instructions:   54000002 cycles:   36010589 heartbeat IPC: 1.32627 cumulative IPC: 1.49956 (Simulation time: 0 hr 1 min 1 sec) 
Heartbeat CPU  0 instructions:   55000001 cycles:   36573283 heartbeat IPC: 1.77716 cumulative IPC: 1.50383 (Simulation time: 0 hr 1 min 3 sec) 
Heartbeat CPU  0 instructions:   56000000 cycles:   37124046 heartbeat IPC: 1.81566 cumulative IPC: 1.50846 (Simulation time: 0 hr 1 min 4 sec) 
Heartbeat CPU  0 instructions:   57000002 cycles:   37704449 heartbeat IPC: 1.72294 cumulative IPC: 1.51176 (Simulation time: 0 hr 1 min 5 sec) 
Heartbeat CPU  0 instructions:   58000001 cycles:   38430396 heartbeat IPC: 1.37751 cumulative IPC: 1.50922 (Simulation time: 0 hr 1 min 6 sec) 
Heartbeat CPU  0 instructions:   59000001 cycles:   39297734 heartbeat IPC: 1.15295 cumulative IPC: 1.50136 (Simulation time: 0 hr 1 min 7 sec) 
Heartbeat CPU  0 instructions:   60000000 cycles:   40014908 heartbeat IPC: 1.39436 cumulative IPC: 1.49944 (Simulation time: 0 hr 1 min 8 sec) 
Heartbeat CPU  0 instructions:   61000003 cycles:   40609232 heartbeat IPC: 1.68259 cumulative IPC: 1.50212 (Simulation time: 0 hr 1 min 9 sec) 
Heartbeat CPU  0 instructions:   62000001 cycles:   41172367 heartbeat IPC: 1.77577 cumulative IPC: 1.50586 (Simulation time: 0 hr 1 min 10 sec) 
Heartbeat CPU  0 instructions:   63000000 cycles:   41956836 heartbeat IPC: 1.27475 cumulative IPC: 1.50154 (Simulation time: 0 hr 1 min 11 sec) 
Heartbeat CPU  0 instructions:   64000000 cycles:   42532048 heartbeat IPC: 1.73849 cumulative IPC: 1.50475 (Simulation time: 0 hr 1 min 13 sec) 
Heartbeat CPU  0 instructions:   65000003 cycles:   43079387 heartbeat IPC: 1.82703 cumulative IPC: 1.50884 (Simulation time: 0 hr 1 min 14 sec) 
Heartbeat CPU  0 instructions:   66000002 cycles:   43661662 heartbeat IPC: 1.71740 cumulative IPC: 1.51162 (Simulation time: 0 hr 1 min 15 sec) 
Heartbeat CPU  0 instructions:   67000000 cycles:   44341750 heartbeat IPC: 1.47039 cumulative IPC: 1.51099 (Simulation time: 0 hr 1 min 16 sec) 
Heartbeat CPU  0 instructions:   68000000 cycles:   45214549 heartbeat IPC: 1.14574 cumulative IPC: 1.50394 (Simulation time: 0 hr 1 min 17 sec) 
Heartbeat CPU  0 instructions:   69000001 cycles:   45963797 heartbeat IPC: 1.33467 cumulative IPC: 1.50118 (Simulation time: 0 hr 1 min 18 sec) 
Heartbeat CPU  0 instructions:   70000000 cycles:   46561008 heartbeat IPC: 1.67445 cumulative IPC: 1.50340 (Simulation time: 0 hr 1 min 19 sec) 
Heartbeat CPU  0 instructions:   71000002 cycles:   47084730 heartbeat IPC: 1.90941 cumulative IPC: 1.50792 (Simulation time: 0 hr 1 min 20 sec) 
Heartbeat CPU  0 instructions:   72000000 cycles:   47886979 heartbeat IPC: 1.24649 cumulative IPC: 1.50354 (Simulation time: 0 hr 1 min 21 sec) 
Heartbeat CPU  0 instructions:   73000001 cycles:   48464265 heartbeat IPC: 1.73225 cumulative IPC: 1.50626 (Simulation time: 0 hr 1 min 23 sec) 
Heartbeat CPU  0 instructions:   74000002 cycles:   49004910 heartbeat IPC: 1.84964 cumulative IPC: 1.51005 (Simulation time: 0 hr 1 min 24 sec) 
Heartbeat CPU  0 instructions:   75000003 cycles:   49596814 heartbeat IPC: 1.68946 cumulative IPC: 1.51219 (Simulation time: 0 hr 1 min 25 sec) 
Heartbeat CPU  0 instructions:   76000000 cycles:   50241527 heartbeat IPC: 1.55107 cumulative IPC: 1.51269 (Simulation time: 0 hr 1 min 26 sec) 
Heartbeat CPU  0 instructions:   77000001 cycles:   51111586 heartbeat IPC: 1.14935 cumulative IPC: 1.50651 (Simulation time: 0 hr 1 min 27 sec) 
Heartbeat CPU  0 instructions:   78000001 cycles:   51882765 heartbeat IPC: 1.29672 cumulative IPC: 1.50339 (Simulation time: 0 hr 1 min 28 sec) 
Heartbeat CPU  0 instructions:   79000003 cycles:   52482208 heartbeat IPC: 1.66822 cumulative IPC: 1.50527 (Simulation time: 0 hr 1 min 29 sec) 
Heartbeat CPU  0 instructions:   80000000 cycles:   53035473 heartbeat IPC: 1.80745 cumulative IPC: 1.50842 (Simulation time: 0 hr 1 min 30 sec) 
Heartbeat CPU  0 instructions:   81000001 cycles:   53821982 heartbeat IPC: 1.27144 cumulative IPC: 1.50496 (Simulation time: 0 hr 1 min 31 sec) 
Heartbeat CPU  0 instructions:   82000002 cycles:   54411936 heartbeat IPC: 1.69505 cumulative IPC: 1.50702 (Simulation time: 0 hr 1 min 33 sec) 
Heartbeat CPU  0 instructions:   83000003 cycles:   54969424 heartbeat IPC: 1.79376 cumulative IPC: 1.50993 (Simulation time: 0 hr 1 min 34 sec) 
Heartbeat CPU  0 instructions:   84000000 cycles:   55520804 heartbeat IPC: 1.81363 cumulative IPC: 1.51295 (Simulation time: 0 hr 1 min 35 sec) 
Heartbeat CPU  0 instructions:   85000001 cycles:   56097467 heartbeat IPC: 1.73412 cumulative IPC: 1.51522 (Simulation time: 0 hr 1 min 36 sec) 
Heartbeat CPU  0 instructions:   86000000 cycles:   56965928 heartbeat IPC: 1.15146 cumulative IPC: 1.50967 (Simulation time: 0 hr 1 min 37 sec) 
Heartbeat CPU  0 instructions:   87000000 cycles:   57790026 heartbeat IPC: 1.21345 cumulative IPC: 1.50545 (Simulation time: 0 hr 1 min 38 sec) 
Heartbeat CPU  0 instructions:   88000000 cycles:   58401179 heartbeat IPC: 1.63625 cumulative IPC: 1.50682 (Simulation time: 0 hr 1 min 39 sec) 
Heartbeat CPU  0 instructions:   89000003 cycles:   59021008 heartbeat IPC: 1.61335 cumulative IPC: 1.50794 (Simulation time: 0 hr 1 min 40 sec) 
Heartbeat CPU  0 instructions:   90000003 cycles:   59714353 heartbeat IPC: 1.44228 cumulative IPC: 1.50718 (Simulation time: 0 hr 1 min 41 sec) 
Heartbeat CPU  0 instructions:   91000001 cycles:   60365560 heartbeat IPC: 1.53561 cumulative IPC: 1.50748 (Simulation time: 0 hr 1 min 43 sec) 
Heartbeat CPU  0 instructions:   92000000 cycles:   60934909 heartbeat IPC: 1.75639 cumulative IPC: 1.50981 (Simulation time: 0 hr 1 min 44 sec) 
Heartbeat CPU  0 instructions:   93000002 cycles:   61478544 heartbeat IPC: 1.83947 cumulative IPC: 1.51272 (Simulation time: 0 hr 1 min 45 sec) 
Heartbeat CPU  0 instructions:   94000003 cycles:   62056859 heartbeat IPC: 1.72916 cumulative IPC: 1.51474 (Simulation time: 0 hr 1 min 46 sec) 
Heartbeat CPU  0 instructions:   95000003 cycles:   62888517 heartbeat IPC: 1.20242 cumulative IPC: 1.51061 (Simulation time: 0 hr 1 min 47 sec) 
Heartbeat CPU  0 instructions:   96000000 cycles:   63733286 heartbeat IPC: 1.18375 cumulative IPC: 1.50628 (Simulation time: 0 hr 1 min 48 sec) 
Heartbeat CPU  0 instructions:   97000002 cycles:   64363580 heartbeat IPC: 1.58656 cumulative IPC: 1.50706 (Simulation time: 0 hr 1 min 49 sec) 
Heartbeat CPU  0 instructions:   98000003 cycles:   64987426 heartbeat IPC: 1.60296 cumulative IPC: 1.50798 (Simulation time: 0 hr 1 min 50 sec) 
Heartbeat CPU  0 instructions:   99000002 cycles:   65638848 heartbeat IPC: 1.53510 cumulative IPC: 1.50825 (Simulation time: 0 hr 1 min 51 sec) 
Heartbeat CPU  0 instructions:  100000000 cycles:   66223133 heartbeat IPC: 1.71149 cumulative IPC: 1.51005 (Simulation time: 0 hr 1 min 52 sec) 

Warmup complete CPU  0 instructions:  100000002 cycles:   66223135 (Simulation time: 0 hr 1 min 52 sec) 

Heartbeat CPU  0 instructions:  101000001 cycles:   72592123 heartbeat IPC: 0.15701 cumulative IPC: 0.15701 (Simulation time: 0 hr 1 min 55 sec) 
Heartbeat CPU  0 instructions:  102000001 cycles:   76014123 heartbeat IPC: 0.29223 cumulative IPC: 0.20427 (Simulation time: 0 hr 1 min 57 sec) 
Heartbeat CPU  0 instructions:  103000001 cycles:   80409880 heartbeat IPC: 0.22749 cumulative IPC: 0.21146 (Simulation time: 0 hr 2 min 0 sec) 
Heartbeat CPU  0 instructions:  104000000 cycles:   84840259 heartbeat IPC: 0.22571 cumulative IPC: 0.21486 (Simulation time: 0 hr 2 min 3 sec) 
Heartbeat CPU  0 instructions:  105000003 cycles:   88031116 heartbeat IPC: 0.31340 cumulative IPC: 0.22927 (Simulation time: 0 hr 2 min 5 sec) 
Heartbeat CPU  0 instructions:  106000001 cycles:   90919793 heartbeat IPC: 0.34618 cumulative IPC: 0.24295 (Simulation time: 0 hr 2 min 8 sec) 
Heartbeat CPU  0 instructions:  107000003 cycles:   94789188 heartbeat IPC: 0.25844 cumulative IPC: 0.24505 (Simulation time: 0 hr 2 min 10 sec) 
Heartbeat CPU  0 instructions:  108000000 cycles:   98196731 heartbeat IPC: 0.29347 cumulative IPC: 0.25021 (Simulation time: 0 hr 2 min 12 sec) 
Heartbeat CPU  0 instructions:  109000000 cycles:  101596634 heartbeat IPC: 0.29413 cumulative IPC: 0.25443 (Simulation time: 0 hr 2 min 14 sec) 
Heartbeat CPU  0 instructions:  110000001 cycles:  103712580 heartbeat IPC: 0.47260 cumulative IPC: 0.26674 (Simulation time: 0 hr 2 min 15 sec) 
Heartbeat CPU  0 instructions:  111000003 cycles:  106170948 heartbeat IPC: 0.40677 cumulative IPC: 0.27536 (Simulation time: 0 hr 2 min 17 sec) 
Heartbeat CPU  0 instructions:  112000000 cycles:  107990350 heartbeat IPC: 0.54963 cumulative IPC: 0.28731 (Simulation time: 0 hr 2 min 19 sec) 
Heartbeat CPU  0 instructions:  113000000 cycles:  109734478 heartbeat IPC: 0.57335 cumulative IPC: 0.29877 (Simulation time: 0 hr 2 min 21 sec) 
Heartbeat CPU  0 instructions:  114000001 cycles:  111048062 heartbeat IPC: 0.76128 cumulative IPC: 0.31233 (Simulation time: 0 hr 2 min 23 sec) 
Heartbeat CPU  0 instructions:  115000000 cycles:  112888281 heartbeat IPC: 0.54341 cumulative IPC: 0.32144 (Simulation time: 0 hr 2 min 25 sec) 
Heartbeat CPU  0 instructions:  116000000 cycles:  116007495 heartbeat IPC: 0.32059 cumulative IPC: 0.32139 (Simulation time: 0 hr 2 min 27 sec) 
Heartbeat CPU  0 instructions:  117000000 cycles:  118676440 heartbeat IPC: 0.37468 cumulative IPC: 0.32410 (Simulation time: 0 hr 2 min 29 sec) 
Heartbeat CPU  0 instructions:  118000000 cycles:  120289549 heartbeat IPC: 0.61992 cumulative IPC: 0.33292 (Simulation time: 0 hr 2 min 31 sec) 
Heartbeat CPU  0 instructions:  119000000 cycles:  122457958 heartbeat IPC: 0.46117 cumulative IPC: 0.33787 (Simulation time: 0 hr 2 min 33 sec) 
Heartbeat CPU  0 instructions:  120000000 cycles:  124230580 heartbeat IPC: 0.56414 cumulative IPC: 0.34478 (Simulation time: 0 hr 2 min 34 sec) 
Heartbeat CPU  0 instructions:  121000001 cycles:  128534266 heartbeat IPC: 0.23236 cumulative IPC: 0.33702 (Simulation time: 0 hr 2 min 37 sec) 
Heartbeat CPU  0 instructions:  122000001 cycles:  132317318 heartbeat IPC: 0.26434 cumulative IPC: 0.33286 (Simulation time: 0 hr 2 min 40 sec) 
Heartbeat CPU  0 instructions:  123000000 cycles:  134001043 heartbeat IPC: 0.59392 cumulative IPC: 0.33934 (Simulation time: 0 hr 2 min 41 sec) 
Heartbeat CPU  0 instructions:  124000000 cycles:  135388821 heartbeat IPC: 0.72058 cumulative IPC: 0.34699 (Simulation time: 0 hr 2 min 42 sec) 
Heartbeat CPU  0 instructions:  125000000 cycles:  138465031 heartbeat IPC: 0.32508 cumulative IPC: 0.34606 (Simulation time: 0 hr 2 min 44 sec) 
Heartbeat CPU  0 instructions:  126000002 cycles:  140826764 heartbeat IPC: 0.42342 cumulative IPC: 0.34851 (Simulation time: 0 hr 2 min 46 sec) 
Heartbeat CPU  0 instructions:  127000002 cycles:  143600940 heartbeat IPC: 0.36047 cumulative IPC: 0.34894 (Simulation time: 0 hr 2 min 48 sec) 
Heartbeat CPU  0 instructions:  128000000 cycles:  145923743 heartbeat IPC: 0.43051 cumulative IPC: 0.35131 (Simulation time: 0 hr 2 min 50 sec) 
Heartbeat CPU  0 instructions:  129000001 cycles:  148132982 heartbeat IPC: 0.45265 cumulative IPC: 0.35405 (Simulation time: 0 hr 2 min 52 sec) 
Heartbeat CPU  0 instructions:  130000000 cycles:  153566561 heartbeat IPC: 0.18404 cumulative IPC: 0.34347 (Simulation time: 0 hr 2 min 55 sec) 
Heartbeat CPU  0 instructions:  131000000 cycles:  155453432 heartbeat IPC: 0.52998 cumulative IPC: 0.34742 (Simulation time: 0 hr 2 min 56 sec) 
Heartbeat CPU  0 instructions:  132000000 cycles:  157040368 heartbeat IPC: 0.63015 cumulative IPC: 0.35236 (Simulation time: 0 hr 2 min 57 sec) 
Heartbeat CPU  0 instructions:  133000000 cycles:  158859916 heartbeat IPC: 0.54959 cumulative IPC: 0.35623 (Simulation time: 0 hr 2 min 59 sec) 
Heartbeat CPU  0 instructions:  134000000 cycles:  161922946 heartbeat IPC: 0.32647 cumulative IPC: 0.35528 (Simulation time: 0 hr 3 min 1 sec) 
Heartbeat CPU  0 instructions:  135000002 cycles:  164716650 heartbeat IPC: 0.35795 cumulative IPC: 0.35535 (Simulation time: 0 hr 3 min 3 sec) 
Heartbeat CPU  0 instructions:  136000000 cycles:  166547120 heartbeat IPC: 0.54631 cumulative IPC: 0.35884 (Simulation time: 0 hr 3 min 5 sec) 
Heartbeat CPU  0 instructions:  137000000 cycles:  168859649 heartbeat IPC: 0.43243 cumulative IPC: 0.36050 (Simulation time: 0 hr 3 min 7 sec) 
Heartbeat CPU  0 instructions:  138000002 cycles:  171801187 heartbeat IPC: 0.33996 cumulative IPC: 0.35992 (Simulation time: 0 hr 3 min 9 sec) 
Heartbeat CPU  0 instructions:  139000000 cycles:  176723345 heartbeat IPC: 0.20316 cumulative IPC: 0.35294 (Simulation time: 0 hr 3 min 12 sec) 
Heartbeat CPU  0 instructions:  140000000 cycles:  178426324 heartbeat IPC: 0.58721 cumulative IPC: 0.35650 (Simulation time: 0 hr 3 min 13 sec) 
Heartbeat CPU  0 instructions:  141000000 cycles:  179926222 heartbeat IPC: 0.66671 cumulative IPC: 0.36059 (Simulation time: 0 hr 3 min 14 sec) 
Heartbeat CPU  0 instructions:  142000000 cycles:  182236188 heartbeat IPC: 0.43291 cumulative IPC: 0.36203 (Simulation time: 0 hr 3 min 15 sec) 
Heartbeat CPU  0 instructions:  143000000 cycles:  184758443 heartbeat IPC: 0.39647 cumulative IPC: 0.36276 (Simulation time: 0 hr 3 min 17 sec) 
Heartbeat CPU  0 instructions:  144000000 cycles:  187777961 heartbeat IPC: 0.33118 cumulative IPC: 0.36198 (Simulation time: 0 hr 3 min 20 sec) 
Heartbeat CPU  0 instructions:  145000002 cycles:  189835485 heartbeat IPC: 0.48602 cumulative IPC: 0.36404 (Simulation time: 0 hr 3 min 21 sec) 
Heartbeat CPU  0 instructions:  146000003 cycles:  191757218 heartbeat IPC: 0.52036 cumulative IPC: 0.36643 (Simulation time: 0 hr 3 min 23 sec) 
Heartbeat CPU  0 instructions:  147000002 cycles:  195758503 heartbeat IPC: 0.24992 cumulative IPC: 0.36284 (Simulation time: 0 hr 3 min 26 sec) 
Heartbeat CPU  0 instructions:  148000000 cycles:  199784505 heartbeat IPC: 0.24838 cumulative IPC: 0.35939 (Simulation time: 0 hr 3 min 29 sec) 
Heartbeat CPU  0 instructions:  149000000 cycles:  201482760 heartbeat IPC: 0.58884 cumulative IPC: 0.36227 (Simulation time: 0 hr 3 min 30 sec) 
Heartbeat CPU  0 instructions:  150000002 cycles:  202909250 heartbeat IPC: 0.70102 cumulative IPC: 0.36580 (Simulation time: 0 hr 3 min 31 sec) 
Heartbeat CPU  0 instructions:  151000000 cycles:  205704650 heartbeat IPC: 0.35773 cumulative IPC: 0.36564 (Simulation time: 0 hr 3 min 32 sec) 
Heartbeat CPU  0 instructions:  152000000 cycles:  208014917 heartbeat IPC: 0.43285 cumulative IPC: 0.36673 (Simulation time: 0 hr 3 min 34 sec) 
Heartbeat CPU  0 instructions:  153000000 cycles:  210561870 heartbeat IPC: 0.39263 cumulative IPC: 0.36719 (Simulation time: 0 hr 3 min 36 sec) 
Heartbeat CPU  0 instructions:  154000002 cycles:  213169705 heartbeat IPC: 0.38346 cumulative IPC: 0.36748 (Simulation time: 0 hr 3 min 38 sec) 
Heartbeat CPU  0 instructions:  155000002 cycles:  214625195 heartbeat IPC: 0.68705 cumulative IPC: 0.37061 (Simulation time: 0 hr 3 min 40 sec) 
Heartbeat CPU  0 instructions:  156000000 cycles:  219351714 heartbeat IPC: 0.21157 cumulative IPC: 0.36571 (Simulation time: 0 hr 3 min 43 sec) 
Heartbeat CPU  0 instructions:  157000000 cycles:  222776139 heartbeat IPC: 0.29202 cumulative IPC: 0.36409 (Simulation time: 0 hr 3 min 45 sec) 
Heartbeat CPU  0 instructions:  158000003 cycles:  224450923 heartbeat IPC: 0.59709 cumulative IPC: 0.36656 (Simulation time: 0 hr 3 min 46 sec) 
Heartbeat CPU  0 instructions:  159000000 cycles:  225798725 heartbeat IPC: 0.74195 cumulative IPC: 0.36973 (Simulation time: 0 hr 3 min 47 sec) 
Heartbeat CPU  0 instructions:  160000000 cycles:  229369311 heartbeat IPC: 0.28007 cumulative IPC: 0.36777 (Simulation time: 0 hr 3 min 49 sec) 
Heartbeat CPU  0 instructions:  161000003 cycles:  231548393 heartbeat IPC: 0.45891 cumulative IPC: 0.36897 (Simulation time: 0 hr 3 min 51 sec) 
Heartbeat CPU  0 instructions:  162000001 cycles:  233969201 heartbeat IPC: 0.41308 cumulative IPC: 0.36961 (Simulation time: 0 hr 3 min 53 sec) 
Heartbeat CPU  0 instructions:  163000000 cycles:  236340964 heartbeat IPC: 0.42163 cumulative IPC: 0.37033 (Simulation time: 0 hr 3 min 55 sec) 
Heartbeat CPU  0 instructions:  164000000 cycles:  238519276 heartbeat IPC: 0.45907 cumulative IPC: 0.37145 (Simulation time: 0 hr 3 min 57 sec) 
Heartbeat CPU  0 instructions:  165000001 cycles:  243917432 heartbeat IPC: 0.18525 cumulative IPC: 0.36580 (Simulation time: 0 hr 4 min 1 sec) 
Heartbeat CPU  0 instructions:  166000000 cycles:  245879122 heartbeat IPC: 0.50976 cumulative IPC: 0.36737 (Simulation time: 0 hr 4 min 2 sec) 
Heartbeat CPU  0 instructions:  167000001 cycles:  247475916 heartbeat IPC: 0.62626 cumulative IPC: 0.36965 (Simulation time: 0 hr 4 min 3 sec) 
Heartbeat CPU  0 instructions:  168000000 cycles:  249287582 heartbeat IPC: 0.55198 cumulative IPC: 0.37145 (Simulation time: 0 hr 4 min 4 sec) 
Heartbeat CPU  0 instructions:  169000001 cycles:  252359645 heartbeat IPC: 0.32551 cumulative IPC: 0.37070 (Simulation time: 0 hr 4 min 6 sec) 
Heartbeat CPU  0 instructions:  170000002 cycles:  255151885 heartbeat IPC: 0.35814 cumulative IPC: 0.37051 (Simulation time: 0 hr 4 min 8 sec) 
Heartbeat CPU  0 instructions:  171000000 cycles:  256976978 heartbeat IPC: 0.54792 cumulative IPC: 0.37221 (Simulation time: 0 hr 4 min 10 sec) 
Heartbeat CPU  0 instructions:  172000000 cycles:  259287576 heartbeat IPC: 0.43279 cumulative IPC: 0.37293 (Simulation time: 0 hr 4 min 12 sec) 
Heartbeat CPU  0 instructions:  173000000 cycles:  262194257 heartbeat IPC: 0.34403 cumulative IPC: 0.37250 (Simulation time: 0 hr 4 min 14 sec) 
Heartbeat CPU  0 instructions:  174000000 cycles:  267160836 heartbeat IPC: 0.20135 cumulative IPC: 0.36827 (Simulation time: 0 hr 4 min 17 sec) 
Heartbeat CPU  0 instructions:  175000000 cycles:  268865069 heartbeat IPC: 0.58677 cumulative IPC: 0.37011 (Simulation time: 0 hr 4 min 18 sec) 
Heartbeat CPU  0 instructions:  176000000 cycles:  270371964 heartbeat IPC: 0.66362 cumulative IPC: 0.37228 (Simulation time: 0 hr 4 min 19 sec) 
Heartbeat CPU  0 instructions:  177000002 cycles:  272639925 heartbeat IPC: 0.44093 cumulative IPC: 0.37303 (Simulation time: 0 hr 4 min 21 sec) 
Heartbeat CPU  0 instructions:  178000001 cycles:  275209073 heartbeat IPC: 0.38923 cumulative IPC: 0.37323 (Simulation time: 0 hr 4 min 23 sec) 
Heartbeat CPU  0 instructions:  179000002 cycles:  278173999 heartbeat IPC: 0.33728 cumulative IPC: 0.37273 (Simulation time: 0 hr 4 min 25 sec) 
Heartbeat CPU  0 instructions:  180000000 cycles:  280557316 heartbeat IPC: 0.41958 cumulative IPC: 0.37325 (Simulation time: 0 hr 4 min 27 sec) 
Heartbeat CPU  0 instructions:  181000003 cycles:  282185840 heartbeat IPC: 0.61405 cumulative IPC: 0.37506 (Simulation time: 0 hr 4 min 29 sec) 
Heartbeat CPU  0 instructions:  182000000 cycles:  286738448 heartbeat IPC: 0.21965 cumulative IPC: 0.37186 (Simulation time: 0 hr 4 min 32 sec) 
Heartbeat CPU  0 instructions:  183000000 cycles:  290307032 heartbeat IPC: 0.28022 cumulative IPC: 0.37040 (Simulation time: 0 hr 4 min 34 sec) 
Heartbeat CPU  0 instructions:  184000000 cycles:  291982117 heartbeat IPC: 0.59698 cumulative IPC: 0.37208 (Simulation time: 0 hr 4 min 35 sec) 
Heartbeat CPU  0 instructions:  185000002 cycles:  293332093 heartbeat IPC: 0.74076 cumulative IPC: 0.37427 (Simulation time: 0 hr 4 min 36 sec) 
Heartbeat CPU  0 instructions:  186000000 cycles:  296730670 heartbeat IPC: 0.29424 cumulative IPC: 0.37309 (Simulation time: 0 hr 4 min 38 sec) 
Heartbeat CPU  0 instructions:  187000000 cycles:  298988753 heartbeat IPC: 0.44285 cumulative IPC: 0.37377 (Simulation time: 0 hr 4 min 40 sec) 
Heartbeat CPU  0 instructions:  188000000 cycles:  301160039 heartbeat IPC: 0.46056 cumulative IPC: 0.37457 (Simulation time: 0 hr 4 min 42 sec) 
Heartbeat CPU  0 instructions:  189000000 cycles:  303719915 heartbeat IPC: 0.39064 cumulative IPC: 0.37474 (Simulation time: 0 hr 4 min 44 sec) 
Heartbeat CPU  0 instructions:  190000001 cycles:  305418252 heartbeat IPC: 0.58881 cumulative IPC: 0.37626 (Simulation time: 0 hr 4 min 46 sec) 
Heartbeat CPU  0 instructions:  191000002 cycles:  310634770 heartbeat IPC: 0.19170 cumulative IPC: 0.37232 (Simulation time: 0 hr 4 min 49 sec) 
Heartbeat CPU  0 instructions:  192000000 cycles:  313267606 heartbeat IPC: 0.37982 cumulative IPC: 0.37240 (Simulation time: 0 hr 4 min 51 sec) 
Heartbeat CPU  0 instructions:  193000003 cycles:  314902979 heartbeat IPC: 0.61148 cumulative IPC: 0.37397 (Simulation time: 0 hr 4 min 52 sec) 
Heartbeat CPU  0 instructions:  194000001 cycles:  316451897 heartbeat IPC: 0.64561 cumulative IPC: 0.37566 (Simulation time: 0 hr 4 min 53 sec) 
Heartbeat CPU  0 instructions:  195000001 cycles:  319798063 heartbeat IPC: 0.29885 cumulative IPC: 0.37464 (Simulation time: 0 hr 4 min 55 sec) 
Heartbeat CPU  0 instructions:  196000000 cycles:  322300056 heartbeat IPC: 0.39968 cumulative IPC: 0.37489 (Simulation time: 0 hr 4 min 57 sec) 
Heartbeat CPU  0 instructions:  197000000 cycles:  324334927 heartbeat IPC: 0.49143 cumulative IPC: 0.37581 (Simulation time: 0 hr 4 min 59 sec) 
Heartbeat CPU  0 instructions:  198000000 cycles:  326656827 heartbeat IPC: 0.43068 cumulative IPC: 0.37630 (Simulation time: 0 hr 5 min 1 sec) 
Heartbeat CPU  0 instructions:  199000002 cycles:  329036469 heartbeat IPC: 0.42023 cumulative IPC: 0.37669 (Simulation time: 0 hr 5 min 3 sec) 
Heartbeat CPU  0 instructions:  200000000 cycles:  334504195 heartbeat IPC: 0.18289 cumulative IPC: 0.37274 (Simulation time: 0 hr 5 min 6 sec) 
Finished CPU 0 instructions: 100000000 cycles: 268281073 cumulative IPC: 0.37274 (Simulation time: 0 hr 5 min 6 sec) 

ChampSim completed all CPUs

[ROI Statistics]
Core_0_instructions 100000000
Core_0_cycles 268281073
Core_0_IPC 0.37274

Core_0_branch_prediction_accuracy 95.09858
Core_0_branch_MPKI 8.66907
Core_0_average_ROB_occupancy_at_mispredict 83.08180

Core_0_L1D_total_access 35726592
Core_0_L1D_total_hit 28471978
Core_0_L1D_total_miss 7254614
Core_0_L1D_loads 15864064
Core_0_L1D_load_hit 12596595
Core_0_L1D_load_miss 3267469
Core_0_L1D_RFOs 5428349
Core_0_L1D_RFO_hit 4592331
Core_0_L1D_RFO_miss 836018
Core_0_L1D_prefetches 14434179
Core_0_L1D_prefetch_hit 11283052
Core_0_L1D_prefetch_miss 3151127
Core_0_L1D_writebacks 0
Core_0_L1D_writeback_hit 0
Core_0_L1D_writeback_miss 0
Core_0_L1D_prefetch_requested 43599989
Core_0_L1D_prefetch_issued 43094233
Core_0_L1D_prefetch_useful 3125809
Core_0_L1D_prefetch_useless 3678109
Core_0_L1D_prefetch_late 505808
Core_0_L1D_average_miss_latency 11465418.25826

Core_0_L1I_total_access 20804787
Core_0_L1I_total_hit 20804155
Core_0_L1I_total_miss 632
Core_0_L1I_loads 20804787
Core_0_L1I_load_hit 20804155
Core_0_L1I_load_miss 632
Core_0_L1I_RFOs 0
Core_0_L1I_RFO_hit 0
Core_0_L1I_RFO_miss 0
Core_0_L1I_prefetches 0
Core_0_L1I_prefetch_hit 0
Core_0_L1I_prefetch_miss 0
Core_0_L1I_writebacks 0
Core_0_L1I_writeback_hit 0
Core_0_L1I_writeback_miss 0
Core_0_L1I_prefetch_requested 0
Core_0_L1I_prefetch_issued 0
Core_0_L1I_prefetch_useful 0
Core_0_L1I_prefetch_useless 0
Core_0_L1I_prefetch_late 0
Core_0_L1I_average_miss_latency 230.25633

Core_0_L2C_total_access 12363243
Core_0_L2C_total_hit 7358821
Core_0_L2C_total_miss 5004422
Core_0_L2C_loads 2887374
Core_0_L2C_load_hit 1514785
Core_0_L2C_load_miss 1372589
Core_0_L2C_RFOs 835814
Core_0_L2C_RFO_hit 147253
Core_0_L2C_RFO_miss 688561
Core_0_L2C_prefetches 6165433
Core_0_L2C_prefetch_hit 3222328
Core_0_L2C_prefetch_miss 2943105
Core_0_L2C_writebacks 2474622
Core_0_L2C_writeback_hit 2474455
Core_0_L2C_writeback_miss 167
Core_0_L2C_prefetch_requested 9101414
Core_0_L2C_prefetch_issued 9095873
Core_0_L2C_prefetch_useful 1312599
Core_0_L2C_prefetch_useless 5041367
Core_0_L2C_prefetch_late 56833
Core_0_L2C_average_miss_latency 207.67816

Core_0_LLC_total_access 8674124
Core_0_LLC_total_hit 4619759
Core_0_LLC_total_miss 4054365
Core_0_LLC_loads 1320934
Core_0_LLC_load_hit 621883
Core_0_LLC_load_miss 699051
Core_0_LLC_RFOs 688556
Core_0_LLC_RFO_hit 112493
Core_0_LLC_RFO_miss 576063
Core_0_LLC_prefetches 5032523
Core_0_LLC_prefetch_hit 2302611
Core_0_LLC_prefetch_miss 2729912
Core_0_LLC_writebacks 1632111
Core_0_LLC_writeback_hit 1582772
Core_0_LLC_writeback_miss 49339
Core_0_LLC_prefetch_requested 7938041
Core_0_LLC_prefetch_issued 7813858
Core_0_LLC_prefetch_useful 738043
Core_0_LLC_prefetch_useless 5118170
Core_0_LLC_prefetch_late 27742
Core_0_LLC_average_miss_latency 299.63094

Core_0_major_page_fault 0
Core_0_minor_page_fault 12935

CPU 0 L1D next line prefetcher final stats
CPU 0 L2C PC-based stride prefetcher final stats
LLC Next Line Prefetcher Final Stats: none
Channel_0_RQ_row_buffer_hit 1076018
Channel_0_RQ_row_buffer_miss 2927876
Channel_0_WQ_row_buffer_hit 315660
Channel_0_WQ_row_buffer_miss 928615
Channel_0_WQ_full 0
Channel_0_dbus_congested 3100753

avg_congested_cycle 10
