*************************************************
   ChampSim Multicore Out-of-Order Simulator
   Last compiled: Dec 24 2023 18:22:47
*************************************************

trace_0 ./test_trace/450.soplex-247B.champsimtrace.xz
CPU 0 L2C next line prefetcher
Initialize DRRIP state
Assign rand_sets[0]: 454  LLC: 2048
rand_sets[0]: 454
Assign rand_sets[1]: 1662  LLC: 2048
rand_sets[1]: 1662
Assign rand_sets[2]: 1921  LLC: 2048
rand_sets[2]: 1921
Assign rand_sets[3]: 1131  LLC: 2048
rand_sets[3]: 1131
Assign rand_sets[4]: 331  LLC: 2048
rand_sets[4]: 331
Assign rand_sets[5]: 1531  LLC: 2048
rand_sets[5]: 1531
Assign rand_sets[6]: 482  LLC: 2048
rand_sets[6]: 482
Assign rand_sets[7]: 1275  LLC: 2048
rand_sets[7]: 1275
Assign rand_sets[8]: 1876  LLC: 2048
rand_sets[8]: 1876
Assign rand_sets[9]: 2038  LLC: 2048
rand_sets[9]: 2038
Assign rand_sets[10]: 701  LLC: 2048
rand_sets[10]: 701
Assign rand_sets[11]: 479  LLC: 2048
rand_sets[11]: 479
Assign rand_sets[12]: 892  LLC: 2048
rand_sets[12]: 892
Assign rand_sets[13]: 1820  LLC: 2048
rand_sets[13]: 1820
Assign rand_sets[14]: 1505  LLC: 2048
rand_sets[14]: 1505
Assign rand_sets[15]: 1159  LLC: 2048
rand_sets[15]: 1159
Assign rand_sets[16]: 513  LLC: 2048
rand_sets[16]: 513
Assign rand_sets[17]: 703  LLC: 2048
rand_sets[17]: 703
Assign rand_sets[18]: 561  LLC: 2048
rand_sets[18]: 561
Assign rand_sets[19]: 990  LLC: 2048
rand_sets[19]: 990
Assign rand_sets[20]: 342  LLC: 2048
rand_sets[20]: 342
Assign rand_sets[21]: 882  LLC: 2048
rand_sets[21]: 882
Assign rand_sets[22]: 15  LLC: 2048
rand_sets[22]: 15
Assign rand_sets[23]: 71  LLC: 2048
rand_sets[23]: 71
Assign rand_sets[24]: 1127  LLC: 2048
rand_sets[24]: 1127
Assign rand_sets[25]: 1382  LLC: 2048
rand_sets[25]: 1382
Assign rand_sets[26]: 647  LLC: 2048
rand_sets[26]: 647
Assign rand_sets[27]: 857  LLC: 2048
rand_sets[27]: 857
Assign rand_sets[28]: 1450  LLC: 2048
rand_sets[28]: 1450
Assign rand_sets[29]: 1160  LLC: 2048
rand_sets[29]: 1160
Assign rand_sets[30]: 1852  LLC: 2048
rand_sets[30]: 1852
Assign rand_sets[31]: 1881  LLC: 2048
rand_sets[31]: 1881
Assign rand_sets[32]: 1770  LLC: 2048
rand_sets[32]: 1770
Assign rand_sets[33]: 1622  LLC: 2048
rand_sets[33]: 1622
Assign rand_sets[34]: 275  LLC: 2048
rand_sets[34]: 275
Assign rand_sets[35]: 635  LLC: 2048
rand_sets[35]: 635
Assign rand_sets[36]: 466  LLC: 2048
rand_sets[36]: 466
Assign rand_sets[37]: 1413  LLC: 2048
rand_sets[37]: 1413
Assign rand_sets[38]: 417  LLC: 2048
rand_sets[38]: 417
Assign rand_sets[39]: 472  LLC: 2048
rand_sets[39]: 472
Assign rand_sets[40]: 1340  LLC: 2048
rand_sets[40]: 1340
Assign rand_sets[41]: 852  LLC: 2048
rand_sets[41]: 852
Assign rand_sets[42]: 1365  LLC: 2048
rand_sets[42]: 1365
Assign rand_sets[43]: 47  LLC: 2048
rand_sets[43]: 47
Assign rand_sets[44]: 823  LLC: 2048
rand_sets[44]: 823
Assign rand_sets[45]: 686  LLC: 2048
rand_sets[45]: 686
Assign rand_sets[46]: 1637  LLC: 2048
rand_sets[46]: 1637
Assign rand_sets[47]: 1115  LLC: 2048
rand_sets[47]: 1115
Assign rand_sets[48]: 986  LLC: 2048
rand_sets[48]: 986
Assign rand_sets[49]: 258  LLC: 2048
rand_sets[49]: 258
Assign rand_sets[50]: 633  LLC: 2048
rand_sets[50]: 633
Assign rand_sets[51]: 920  LLC: 2048
rand_sets[51]: 920
Assign rand_sets[52]: 204  LLC: 2048
rand_sets[52]: 204
Assign rand_sets[53]: 227  LLC: 2048
rand_sets[53]: 227
Assign rand_sets[54]: 1818  LLC: 2048
rand_sets[54]: 1818
Assign rand_sets[55]: 886  LLC: 2048
rand_sets[55]: 886
Assign rand_sets[56]: 1422  LLC: 2048
rand_sets[56]: 1422
Assign rand_sets[57]: 607  LLC: 2048
rand_sets[57]: 607
Assign rand_sets[58]: 217  LLC: 2048
rand_sets[58]: 217
Assign rand_sets[59]: 1945  LLC: 2048
rand_sets[59]: 1945
Assign rand_sets[60]: 143  LLC: 2048
rand_sets[60]: 143
Assign rand_sets[61]: 1311  LLC: 2048
rand_sets[61]: 1311
Assign rand_sets[62]: 319  LLC: 2048
rand_sets[62]: 319
Assign rand_sets[63]: 1846  LLC: 2048
rand_sets[63]: 1846
warmup_instructions 100000000
simulation_instructions 100000000
champsim_seed 223

num_cpus 1
cpu_freq 4000
dram_io_freq 2400
page_size 4096
block_size 64
max_read_per_cycle 8
max_fill_per_cycle 1
dram_channels 1
dram_ranks 1
dram_banks 8
dram_rows 65536
dram_columns 128
dram_row_size 8
dram_size 4096
dram_pages 1048576

fetch_width 6
decode_width 6
exec_width 4
lq_width 2
sq_width 2
retire_width 4
scheduler_size 128
branch_mispredict_penalty 20
rob_size 256
lq_size 72
sq_size 56
num_instr_destinations_sparc 4
num_instr_destinations 2
num_instr_sources 4

itlb_set 16
itlb_way 8
itlb_rq_size 16
itlb_wq_size 16
itlb_pq_size 0
itlb_mshr_size 8
itlb_latency 1

dtlb_set 16
dtlb_way 4
dtlb_rq_size 16
dtlb_wq_size 16
dtlb_pq_size 0
dtlb_mshr_size 8
dtlb_latency 1

stlb_set 128
stlb_way 12
stlb_rq_size 32
stlb_wq_size 32
stlb_pq_size 0
stlb_mshr_size 16
stlb_latency 8

l1i_size 32
l1i_set 64
l1i_way 8
l1i_rq_size 64
l1i_wq_size 64
l1i_pq_size 8
l1i_mshr_size 8
l1i_latency 1

l1d_size 32
l1d_set 64
l1d_way 8
l1d_rq_size 64
l1d_wq_size 64
l1d_pq_size 8
l1d_mshr_size 16
l1d_latency 4

l2c_size 512
l2c_set 1024
l2c_way 8
l2c_rq_size 32
l2c_wq_size 32
l2c_pq_size 16
l2c_mshr_size 32
l2c_latency 10

llc_size 2048
llc_set 2048
llc_way 16
llc_rq_size 32
llc_wq_size 32
llc_pq_size 32
llc_mshr_size 64
llc_latency 20

dram_channel_width 8
dram_wq_size 64
dram_rq_size 64
tRP 15
tRCD 15
tCAS 12.5
dram_dbus_turn_around_time 30
dram_write_high_wm 56
dram_write_low_wm 48
min_dram_writes_per_switch 16
dram_mtps 2400
dram_dbus_return_time 13


Heartbeat CPU  0 instructions:    1000002 cycles:     755385 heartbeat IPC: 1.32383 cumulative IPC: 1.32383 (Simulation time: 0 hr 0 min 1 sec) 
Heartbeat CPU  0 instructions:    2000001 cycles:    1396367 heartbeat IPC: 1.56010 cumulative IPC: 1.43229 (Simulation time: 0 hr 0 min 2 sec) 
Heartbeat CPU  0 instructions:    3000001 cycles:    2121030 heartbeat IPC: 1.37995 cumulative IPC: 1.41441 (Simulation time: 0 hr 0 min 4 sec) 
Heartbeat CPU  0 instructions:    4000000 cycles:    2662439 heartbeat IPC: 1.84703 cumulative IPC: 1.50238 (Simulation time: 0 hr 0 min 5 sec) 
Heartbeat CPU  0 instructions:    5000000 cycles:    3569044 heartbeat IPC: 1.10302 cumulative IPC: 1.40094 (Simulation time: 0 hr 0 min 6 sec) 
Heartbeat CPU  0 instructions:    6000001 cycles:    4458152 heartbeat IPC: 1.12472 cumulative IPC: 1.34585 (Simulation time: 0 hr 0 min 7 sec) 
Heartbeat CPU  0 instructions:    7000000 cycles:    5255661 heartbeat IPC: 1.25390 cumulative IPC: 1.33190 (Simulation time: 0 hr 0 min 8 sec) 
Heartbeat CPU  0 instructions:    8000000 cycles:    5946611 heartbeat IPC: 1.44728 cumulative IPC: 1.34530 (Simulation time: 0 hr 0 min 9 sec) 
Heartbeat CPU  0 instructions:    9000001 cycles:    6563928 heartbeat IPC: 1.61991 cumulative IPC: 1.37113 (Simulation time: 0 hr 0 min 11 sec) 
Heartbeat CPU  0 instructions:   10000000 cycles:    7110613 heartbeat IPC: 1.82921 cumulative IPC: 1.40635 (Simulation time: 0 hr 0 min 12 sec) 
Heartbeat CPU  0 instructions:   11000000 cycles:    7702845 heartbeat IPC: 1.68853 cumulative IPC: 1.42804 (Simulation time: 0 hr 0 min 13 sec) 
Heartbeat CPU  0 instructions:   12000000 cycles:    8378897 heartbeat IPC: 1.47918 cumulative IPC: 1.43217 (Simulation time: 0 hr 0 min 14 sec) 
Heartbeat CPU  0 instructions:   13000000 cycles:    9259026 heartbeat IPC: 1.13620 cumulative IPC: 1.40404 (Simulation time: 0 hr 0 min 14 sec) 
Heartbeat CPU  0 instructions:   14000002 cycles:   10006729 heartbeat IPC: 1.33743 cumulative IPC: 1.39906 (Simulation time: 0 hr 0 min 15 sec) 
Heartbeat CPU  0 instructions:   15000000 cycles:   10604619 heartbeat IPC: 1.67255 cumulative IPC: 1.41448 (Simulation time: 0 hr 0 min 16 sec) 
Heartbeat CPU  0 instructions:   16000000 cycles:   11130097 heartbeat IPC: 1.90303 cumulative IPC: 1.43754 (Simulation time: 0 hr 0 min 17 sec) 
Heartbeat CPU  0 instructions:   17000000 cycles:   11941555 heartbeat IPC: 1.23235 cumulative IPC: 1.42360 (Simulation time: 0 hr 0 min 18 sec) 
Heartbeat CPU  0 instructions:   18000001 cycles:   12543021 heartbeat IPC: 1.66261 cumulative IPC: 1.43506 (Simulation time: 0 hr 0 min 19 sec) 
Heartbeat CPU  0 instructions:   19000001 cycles:   13083641 heartbeat IPC: 1.84973 cumulative IPC: 1.45220 (Simulation time: 0 hr 0 min 20 sec) 
Heartbeat CPU  0 instructions:   20000000 cycles:   13680404 heartbeat IPC: 1.67571 cumulative IPC: 1.46195 (Simulation time: 0 hr 0 min 22 sec) 
Heartbeat CPU  0 instructions:   21000001 cycles:   14337380 heartbeat IPC: 1.52213 cumulative IPC: 1.46470 (Simulation time: 0 hr 0 min 23 sec) 
Heartbeat CPU  0 instructions:   22000003 cycles:   15215537 heartbeat IPC: 1.13875 cumulative IPC: 1.44589 (Simulation time: 0 hr 0 min 23 sec) 
Heartbeat CPU  0 instructions:   23000001 cycles:   15981755 heartbeat IPC: 1.30511 cumulative IPC: 1.43914 (Simulation time: 0 hr 0 min 24 sec) 
Heartbeat CPU  0 instructions:   24000000 cycles:   16576740 heartbeat IPC: 1.68071 cumulative IPC: 1.44781 (Simulation time: 0 hr 0 min 25 sec) 
Heartbeat CPU  0 instructions:   25000000 cycles:   17116036 heartbeat IPC: 1.85427 cumulative IPC: 1.46062 (Simulation time: 0 hr 0 min 26 sec) 
Heartbeat CPU  0 instructions:   26000001 cycles:   17915834 heartbeat IPC: 1.25032 cumulative IPC: 1.45123 (Simulation time: 0 hr 0 min 27 sec) 
Heartbeat CPU  0 instructions:   27000003 cycles:   18484900 heartbeat IPC: 1.75727 cumulative IPC: 1.46065 (Simulation time: 0 hr 0 min 28 sec) 
Heartbeat CPU  0 instructions:   28000000 cycles:   19043321 heartbeat IPC: 1.79076 cumulative IPC: 1.47033 (Simulation time: 0 hr 0 min 29 sec) 
Heartbeat CPU  0 instructions:   29000002 cycles:   19598796 heartbeat IPC: 1.80026 cumulative IPC: 1.47968 (Simulation time: 0 hr 0 min 30 sec) 
Heartbeat CPU  0 instructions:   30000001 cycles:   20185326 heartbeat IPC: 1.70494 cumulative IPC: 1.48623 (Simulation time: 0 hr 0 min 31 sec) 
Heartbeat CPU  0 instructions:   31000002 cycles:   21053222 heartbeat IPC: 1.15221 cumulative IPC: 1.47246 (Simulation time: 0 hr 0 min 32 sec) 
Heartbeat CPU  0 instructions:   32000000 cycles:   21873388 heartbeat IPC: 1.21926 cumulative IPC: 1.46296 (Simulation time: 0 hr 0 min 33 sec) 
Heartbeat CPU  0 instructions:   33000000 cycles:   22469803 heartbeat IPC: 1.67668 cumulative IPC: 1.46864 (Simulation time: 0 hr 0 min 34 sec) 
Heartbeat CPU  0 instructions:   34000000 cycles:   23082480 heartbeat IPC: 1.63218 cumulative IPC: 1.47298 (Simulation time: 0 hr 0 min 35 sec) 
Heartbeat CPU  0 instructions:   35000002 cycles:   23807747 heartbeat IPC: 1.37881 cumulative IPC: 1.47011 (Simulation time: 0 hr 0 min 36 sec) 
Heartbeat CPU  0 instructions:   36000000 cycles:   24407227 heartbeat IPC: 1.66811 cumulative IPC: 1.47497 (Simulation time: 0 hr 0 min 37 sec) 
Heartbeat CPU  0 instructions:   37000002 cycles:   24948855 heartbeat IPC: 1.84629 cumulative IPC: 1.48303 (Simulation time: 0 hr 0 min 38 sec) 
Heartbeat CPU  0 instructions:   38000002 cycles:   25515290 heartbeat IPC: 1.76543 cumulative IPC: 1.48930 (Simulation time: 0 hr 0 min 39 sec) 
Heartbeat CPU  0 instructions:   39000000 cycles:   26095727 heartbeat IPC: 1.72284 cumulative IPC: 1.49450 (Simulation time: 0 hr 0 min 40 sec) 
Heartbeat CPU  0 instructions:   40000000 cycles:   26869877 heartbeat IPC: 1.29174 cumulative IPC: 1.48866 (Simulation time: 0 hr 0 min 41 sec) 
Heartbeat CPU  0 instructions:   41000001 cycles:   27735167 heartbeat IPC: 1.15568 cumulative IPC: 1.47827 (Simulation time: 0 hr 0 min 42 sec) 
Heartbeat CPU  0 instructions:   42000001 cycles:   28385828 heartbeat IPC: 1.53690 cumulative IPC: 1.47961 (Simulation time: 0 hr 0 min 43 sec) 
Heartbeat CPU  0 instructions:   43000000 cycles:   29018892 heartbeat IPC: 1.57962 cumulative IPC: 1.48179 (Simulation time: 0 hr 0 min 44 sec) 
Heartbeat CPU  0 instructions:   44000000 cycles:   29644144 heartbeat IPC: 1.59936 cumulative IPC: 1.48427 (Simulation time: 0 hr 0 min 45 sec) 
Heartbeat CPU  0 instructions:   45000000 cycles:   30371479 heartbeat IPC: 1.37488 cumulative IPC: 1.48165 (Simulation time: 0 hr 0 min 46 sec) 
Heartbeat CPU  0 instructions:   46000001 cycles:   30910590 heartbeat IPC: 1.85491 cumulative IPC: 1.48816 (Simulation time: 0 hr 0 min 47 sec) 
Heartbeat CPU  0 instructions:   47000000 cycles:   31470434 heartbeat IPC: 1.78621 cumulative IPC: 1.49347 (Simulation time: 0 hr 0 min 48 sec) 
Heartbeat CPU  0 instructions:   48000000 cycles:   32056096 heartbeat IPC: 1.70747 cumulative IPC: 1.49738 (Simulation time: 0 hr 0 min 49 sec) 
Heartbeat CPU  0 instructions:   49000001 cycles:   32795052 heartbeat IPC: 1.35326 cumulative IPC: 1.49413 (Simulation time: 0 hr 0 min 50 sec) 
Heartbeat CPU  0 instructions:   50000001 cycles:   33662484 heartbeat IPC: 1.15283 cumulative IPC: 1.48533 (Simulation time: 0 hr 0 min 51 sec) 
Heartbeat CPU  0 instructions:   51000003 cycles:   34356013 heartbeat IPC: 1.44190 cumulative IPC: 1.48446 (Simulation time: 0 hr 0 min 52 sec) 
Heartbeat CPU  0 instructions:   52000000 cycles:   34956993 heartbeat IPC: 1.66394 cumulative IPC: 1.48754 (Simulation time: 0 hr 0 min 53 sec) 
Heartbeat CPU  0 instructions:   53000000 cycles:   35534377 heartbeat IPC: 1.73195 cumulative IPC: 1.49151 (Simulation time: 0 hr 0 min 54 sec) 
Heartbeat CPU  0 instructions:   54000002 cycles:   36298478 heartbeat IPC: 1.30873 cumulative IPC: 1.48767 (Simulation time: 0 hr 0 min 55 sec) 
Heartbeat CPU  0 instructions:   55000001 cycles:   36871412 heartbeat IPC: 1.74540 cumulative IPC: 1.49167 (Simulation time: 0 hr 0 min 56 sec) 
Heartbeat CPU  0 instructions:   56000000 cycles:   37424827 heartbeat IPC: 1.80696 cumulative IPC: 1.49633 (Simulation time: 0 hr 0 min 57 sec) 
Heartbeat CPU  0 instructions:   57000002 cycles:   38012273 heartbeat IPC: 1.70229 cumulative IPC: 1.49952 (Simulation time: 0 hr 0 min 58 sec) 
Heartbeat CPU  0 instructions:   58000001 cycles:   38744438 heartbeat IPC: 1.36581 cumulative IPC: 1.49699 (Simulation time: 0 hr 0 min 59 sec) 
Heartbeat CPU  0 instructions:   59000001 cycles:   39614094 heartbeat IPC: 1.14988 cumulative IPC: 1.48937 (Simulation time: 0 hr 1 min 0 sec) 
Heartbeat CPU  0 instructions:   60000000 cycles:   40332922 heartbeat IPC: 1.39115 cumulative IPC: 1.48762 (Simulation time: 0 hr 1 min 1 sec) 
Heartbeat CPU  0 instructions:   61000003 cycles:   40942962 heartbeat IPC: 1.63924 cumulative IPC: 1.48988 (Simulation time: 0 hr 1 min 1 sec) 
Heartbeat CPU  0 instructions:   62000001 cycles:   41510261 heartbeat IPC: 1.76274 cumulative IPC: 1.49361 (Simulation time: 0 hr 1 min 3 sec) 
Heartbeat CPU  0 instructions:   63000000 cycles:   42301999 heartbeat IPC: 1.26304 cumulative IPC: 1.48929 (Simulation time: 0 hr 1 min 4 sec) 
Heartbeat CPU  0 instructions:   64000000 cycles:   42888544 heartbeat IPC: 1.70490 cumulative IPC: 1.49224 (Simulation time: 0 hr 1 min 5 sec) 
Heartbeat CPU  0 instructions:   65000003 cycles:   43440062 heartbeat IPC: 1.81318 cumulative IPC: 1.49631 (Simulation time: 0 hr 1 min 6 sec) 
Heartbeat CPU  0 instructions:   66000002 cycles:   44028037 heartbeat IPC: 1.70075 cumulative IPC: 1.49904 (Simulation time: 0 hr 1 min 7 sec) 
Heartbeat CPU  0 instructions:   67000000 cycles:   44715255 heartbeat IPC: 1.45514 cumulative IPC: 1.49837 (Simulation time: 0 hr 1 min 8 sec) 
Heartbeat CPU  0 instructions:   68000000 cycles:   45590404 heartbeat IPC: 1.14266 cumulative IPC: 1.49154 (Simulation time: 0 hr 1 min 9 sec) 
Heartbeat CPU  0 instructions:   69000001 cycles:   46341485 heartbeat IPC: 1.33142 cumulative IPC: 1.48895 (Simulation time: 0 hr 1 min 10 sec) 
Heartbeat CPU  0 instructions:   70000000 cycles:   46951873 heartbeat IPC: 1.63830 cumulative IPC: 1.49089 (Simulation time: 0 hr 1 min 10 sec) 
Heartbeat CPU  0 instructions:   71000002 cycles:   47481855 heartbeat IPC: 1.88686 cumulative IPC: 1.49531 (Simulation time: 0 hr 1 min 11 sec) 
Heartbeat CPU  0 instructions:   72000000 cycles:   48288452 heartbeat IPC: 1.23977 cumulative IPC: 1.49104 (Simulation time: 0 hr 1 min 13 sec) 
Heartbeat CPU  0 instructions:   73000001 cycles:   48880086 heartbeat IPC: 1.69024 cumulative IPC: 1.49345 (Simulation time: 0 hr 1 min 14 sec) 
Heartbeat CPU  0 instructions:   74000002 cycles:   49425866 heartbeat IPC: 1.83224 cumulative IPC: 1.49719 (Simulation time: 0 hr 1 min 15 sec) 
Heartbeat CPU  0 instructions:   75000003 cycles:   50022918 heartbeat IPC: 1.67490 cumulative IPC: 1.49931 (Simulation time: 0 hr 1 min 16 sec) 
Heartbeat CPU  0 instructions:   76000000 cycles:   50675265 heartbeat IPC: 1.53292 cumulative IPC: 1.49975 (Simulation time: 0 hr 1 min 17 sec) 
Heartbeat CPU  0 instructions:   77000001 cycles:   51547638 heartbeat IPC: 1.14630 cumulative IPC: 1.49376 (Simulation time: 0 hr 1 min 18 sec) 
Heartbeat CPU  0 instructions:   78000001 cycles:   52320763 heartbeat IPC: 1.29345 cumulative IPC: 1.49080 (Simulation time: 0 hr 1 min 19 sec) 
Heartbeat CPU  0 instructions:   79000003 cycles:   52930841 heartbeat IPC: 1.63914 cumulative IPC: 1.49251 (Simulation time: 0 hr 1 min 19 sec) 
Heartbeat CPU  0 instructions:   80000000 cycles:   53492992 heartbeat IPC: 1.77888 cumulative IPC: 1.49552 (Simulation time: 0 hr 1 min 20 sec) 
Heartbeat CPU  0 instructions:   81000001 cycles:   54281554 heartbeat IPC: 1.26813 cumulative IPC: 1.49222 (Simulation time: 0 hr 1 min 21 sec) 
Heartbeat CPU  0 instructions:   82000002 cycles:   54887466 heartbeat IPC: 1.65041 cumulative IPC: 1.49397 (Simulation time: 0 hr 1 min 23 sec) 
Heartbeat CPU  0 instructions:   83000003 cycles:   55450123 heartbeat IPC: 1.77728 cumulative IPC: 1.49684 (Simulation time: 0 hr 1 min 24 sec) 
Heartbeat CPU  0 instructions:   84000000 cycles:   56003803 heartbeat IPC: 1.80609 cumulative IPC: 1.49990 (Simulation time: 0 hr 1 min 25 sec) 
Heartbeat CPU  0 instructions:   85000001 cycles:   56590164 heartbeat IPC: 1.70544 cumulative IPC: 1.50203 (Simulation time: 0 hr 1 min 26 sec) 
Heartbeat CPU  0 instructions:   86000000 cycles:   57461561 heartbeat IPC: 1.14758 cumulative IPC: 1.49665 (Simulation time: 0 hr 1 min 27 sec) 
Heartbeat CPU  0 instructions:   87000000 cycles:   58287748 heartbeat IPC: 1.21038 cumulative IPC: 1.49259 (Simulation time: 0 hr 1 min 27 sec) 
Heartbeat CPU  0 instructions:   88000000 cycles:   58904316 heartbeat IPC: 1.62188 cumulative IPC: 1.49395 (Simulation time: 0 hr 1 min 28 sec) 
Heartbeat CPU  0 instructions:   89000003 cycles:   59539791 heartbeat IPC: 1.57363 cumulative IPC: 1.49480 (Simulation time: 0 hr 1 min 29 sec) 
Heartbeat CPU  0 instructions:   90000003 cycles:   60234916 heartbeat IPC: 1.43859 cumulative IPC: 1.49415 (Simulation time: 0 hr 1 min 30 sec) 
Heartbeat CPU  0 instructions:   91000001 cycles:   60902918 heartbeat IPC: 1.49700 cumulative IPC: 1.49418 (Simulation time: 0 hr 1 min 32 sec) 
Heartbeat CPU  0 instructions:   92000000 cycles:   61477006 heartbeat IPC: 1.74189 cumulative IPC: 1.49649 (Simulation time: 0 hr 1 min 33 sec) 
Heartbeat CPU  0 instructions:   93000002 cycles:   62022166 heartbeat IPC: 1.83433 cumulative IPC: 1.49946 (Simulation time: 0 hr 1 min 34 sec) 
Heartbeat CPU  0 instructions:   94000003 cycles:   62610104 heartbeat IPC: 1.70086 cumulative IPC: 1.50136 (Simulation time: 0 hr 1 min 35 sec) 
Heartbeat CPU  0 instructions:   95000003 cycles:   63445709 heartbeat IPC: 1.19674 cumulative IPC: 1.49734 (Simulation time: 0 hr 1 min 36 sec) 
Heartbeat CPU  0 instructions:   96000000 cycles:   64292737 heartbeat IPC: 1.18059 cumulative IPC: 1.49317 (Simulation time: 0 hr 1 min 36 sec) 
Heartbeat CPU  0 instructions:   97000002 cycles:   64926231 heartbeat IPC: 1.57855 cumulative IPC: 1.49400 (Simulation time: 0 hr 1 min 37 sec) 
Heartbeat CPU  0 instructions:   98000003 cycles:   65566393 heartbeat IPC: 1.56211 cumulative IPC: 1.49467 (Simulation time: 0 hr 1 min 38 sec) 
Heartbeat CPU  0 instructions:   99000002 cycles:   66219515 heartbeat IPC: 1.53111 cumulative IPC: 1.49503 (Simulation time: 0 hr 1 min 39 sec) 
Heartbeat CPU  0 instructions:  100000000 cycles:   66805041 heartbeat IPC: 1.70786 cumulative IPC: 1.49689 (Simulation time: 0 hr 1 min 40 sec) 

Warmup complete CPU  0 instructions:  100000002 cycles:   66805043 (Simulation time: 0 hr 1 min 40 sec) 

Heartbeat CPU  0 instructions:  101000001 cycles:   73800564 heartbeat IPC: 0.14295 cumulative IPC: 0.14295 (Simulation time: 0 hr 1 min 43 sec) 
Heartbeat CPU  0 instructions:  102000001 cycles:   77406274 heartbeat IPC: 0.27734 cumulative IPC: 0.18866 (Simulation time: 0 hr 1 min 45 sec) 
Heartbeat CPU  0 instructions:  103000001 cycles:   81653499 heartbeat IPC: 0.23545 cumulative IPC: 0.20204 (Simulation time: 0 hr 1 min 48 sec) 
Heartbeat CPU  0 instructions:  104000000 cycles:   86038765 heartbeat IPC: 0.22804 cumulative IPC: 0.20797 (Simulation time: 0 hr 1 min 50 sec) 
Heartbeat CPU  0 instructions:  105000003 cycles:   89425910 heartbeat IPC: 0.29523 cumulative IPC: 0.22103 (Simulation time: 0 hr 1 min 53 sec) 
Heartbeat CPU  0 instructions:  106000001 cycles:   92494364 heartbeat IPC: 0.32590 cumulative IPC: 0.23356 (Simulation time: 0 hr 1 min 55 sec) 
Heartbeat CPU  0 instructions:  107000003 cycles:   96536972 heartbeat IPC: 0.24737 cumulative IPC: 0.23544 (Simulation time: 0 hr 1 min 57 sec) 
Heartbeat CPU  0 instructions:  108000000 cycles:  100025117 heartbeat IPC: 0.28668 cumulative IPC: 0.24082 (Simulation time: 0 hr 1 min 59 sec) 
Heartbeat CPU  0 instructions:  109000000 cycles:  103503722 heartbeat IPC: 0.28747 cumulative IPC: 0.24524 (Simulation time: 0 hr 2 min 1 sec) 
Heartbeat CPU  0 instructions:  110000001 cycles:  105769940 heartbeat IPC: 0.44126 cumulative IPC: 0.25664 (Simulation time: 0 hr 2 min 2 sec) 
Heartbeat CPU  0 instructions:  111000003 cycles:  108359555 heartbeat IPC: 0.38616 cumulative IPC: 0.26471 (Simulation time: 0 hr 2 min 4 sec) 
Heartbeat CPU  0 instructions:  112000000 cycles:  110297642 heartbeat IPC: 0.51597 cumulative IPC: 0.27591 (Simulation time: 0 hr 2 min 6 sec) 
Heartbeat CPU  0 instructions:  113000002 cycles:  112206426 heartbeat IPC: 0.52389 cumulative IPC: 0.28633 (Simulation time: 0 hr 2 min 8 sec) 
Heartbeat CPU  0 instructions:  114000001 cycles:  113744241 heartbeat IPC: 0.65027 cumulative IPC: 0.29826 (Simulation time: 0 hr 2 min 9 sec) 
Heartbeat CPU  0 instructions:  115000000 cycles:  115831341 heartbeat IPC: 0.47913 cumulative IPC: 0.30596 (Simulation time: 0 hr 2 min 11 sec) 
Heartbeat CPU  0 instructions:  116000000 cycles:  119789209 heartbeat IPC: 0.25266 cumulative IPC: 0.30198 (Simulation time: 0 hr 2 min 13 sec) 
Heartbeat CPU  0 instructions:  117000000 cycles:  122817123 heartbeat IPC: 0.33026 cumulative IPC: 0.30351 (Simulation time: 0 hr 2 min 15 sec) 
Heartbeat CPU  0 instructions:  118000002 cycles:  125615943 heartbeat IPC: 0.35729 cumulative IPC: 0.30607 (Simulation time: 0 hr 2 min 17 sec) 
Heartbeat CPU  0 instructions:  119000000 cycles:  128676876 heartbeat IPC: 0.32670 cumulative IPC: 0.30709 (Simulation time: 0 hr 2 min 19 sec) 
Heartbeat CPU  0 instructions:  120000000 cycles:  131059341 heartbeat IPC: 0.41973 cumulative IPC: 0.31126 (Simulation time: 0 hr 2 min 21 sec) 
Heartbeat CPU  0 instructions:  121000001 cycles:  135746082 heartbeat IPC: 0.21337 cumulative IPC: 0.30461 (Simulation time: 0 hr 2 min 24 sec) 
Heartbeat CPU  0 instructions:  122000001 cycles:  139655190 heartbeat IPC: 0.25581 cumulative IPC: 0.30199 (Simulation time: 0 hr 2 min 26 sec) 
Heartbeat CPU  0 instructions:  123000000 cycles:  141483772 heartbeat IPC: 0.54687 cumulative IPC: 0.30799 (Simulation time: 0 hr 2 min 27 sec) 
Heartbeat CPU  0 instructions:  124000000 cycles:  142983800 heartbeat IPC: 0.66665 cumulative IPC: 0.31505 (Simulation time: 0 hr 2 min 28 sec) 
Heartbeat CPU  0 instructions:  125000000 cycles:  146337880 heartbeat IPC: 0.29814 cumulative IPC: 0.31434 (Simulation time: 0 hr 2 min 29 sec) 
Heartbeat CPU  0 instructions:  126000000 cycles:  148911680 heartbeat IPC: 0.38853 cumulative IPC: 0.31666 (Simulation time: 0 hr 2 min 31 sec) 
Heartbeat CPU  0 instructions:  127000002 cycles:  153063745 heartbeat IPC: 0.24084 cumulative IPC: 0.31301 (Simulation time: 0 hr 2 min 34 sec) 
Heartbeat CPU  0 instructions:  128000000 cycles:  156383372 heartbeat IPC: 0.30124 cumulative IPC: 0.31258 (Simulation time: 0 hr 2 min 35 sec) 
Heartbeat CPU  0 instructions:  129000001 cycles:  158572474 heartbeat IPC: 0.45681 cumulative IPC: 0.31602 (Simulation time: 0 hr 2 min 37 sec) 
Heartbeat CPU  0 instructions:  130000002 cycles:  163044719 heartbeat IPC: 0.22360 cumulative IPC: 0.31172 (Simulation time: 0 hr 2 min 40 sec) 
Heartbeat CPU  0 instructions:  131000000 cycles:  164973433 heartbeat IPC: 0.51848 cumulative IPC: 0.31578 (Simulation time: 0 hr 2 min 41 sec) 
Heartbeat CPU  0 instructions:  132000000 cycles:  166631207 heartbeat IPC: 0.60322 cumulative IPC: 0.32056 (Simulation time: 0 hr 2 min 42 sec) 
Heartbeat CPU  0 instructions:  133000000 cycles:  168585307 heartbeat IPC: 0.51174 cumulative IPC: 0.32423 (Simulation time: 0 hr 2 min 43 sec) 
Heartbeat CPU  0 instructions:  134000000 cycles:  171647188 heartbeat IPC: 0.32660 cumulative IPC: 0.32430 (Simulation time: 0 hr 2 min 45 sec) 
Heartbeat CPU  0 instructions:  135000002 cycles:  175980394 heartbeat IPC: 0.23078 cumulative IPC: 0.32059 (Simulation time: 0 hr 2 min 47 sec) 
Heartbeat CPU  0 instructions:  136000000 cycles:  178406577 heartbeat IPC: 0.41217 cumulative IPC: 0.32258 (Simulation time: 0 hr 2 min 49 sec) 
Heartbeat CPU  0 instructions:  137000000 cycles:  181624468 heartbeat IPC: 0.31076 cumulative IPC: 0.32225 (Simulation time: 0 hr 2 min 51 sec) 
Heartbeat CPU  0 instructions:  138000003 cycles:  184478663 heartbeat IPC: 0.35036 cumulative IPC: 0.32293 (Simulation time: 0 hr 2 min 53 sec) 
Heartbeat CPU  0 instructions:  139000000 cycles:  188396232 heartbeat IPC: 0.25526 cumulative IPC: 0.32075 (Simulation time: 0 hr 2 min 55 sec) 
Heartbeat CPU  0 instructions:  140000000 cycles:  190183747 heartbeat IPC: 0.55944 cumulative IPC: 0.32421 (Simulation time: 0 hr 2 min 56 sec) 
Heartbeat CPU  0 instructions:  141000000 cycles:  191762362 heartbeat IPC: 0.63347 cumulative IPC: 0.32811 (Simulation time: 0 hr 2 min 57 sec) 
Heartbeat CPU  0 instructions:  142000000 cycles:  194216249 heartbeat IPC: 0.40752 cumulative IPC: 0.32964 (Simulation time: 0 hr 2 min 58 sec) 
Heartbeat CPU  0 instructions:  143000003 cycles:  196774775 heartbeat IPC: 0.39085 cumulative IPC: 0.33085 (Simulation time: 0 hr 3 min 0 sec) 
Heartbeat CPU  0 instructions:  144000000 cycles:  201679079 heartbeat IPC: 0.20390 cumulative IPC: 0.32623 (Simulation time: 0 hr 3 min 2 sec) 
Heartbeat CPU  0 instructions:  145000002 cycles:  204166077 heartbeat IPC: 0.40209 cumulative IPC: 0.32760 (Simulation time: 0 hr 3 min 4 sec) 
Heartbeat CPU  0 instructions:  146000003 cycles:  206644710 heartbeat IPC: 0.40345 cumulative IPC: 0.32895 (Simulation time: 0 hr 3 min 6 sec) 
Heartbeat CPU  0 instructions:  147000002 cycles:  210288682 heartbeat IPC: 0.27443 cumulative IPC: 0.32756 (Simulation time: 0 hr 3 min 8 sec) 
Heartbeat CPU  0 instructions:  148000000 cycles:  213596000 heartbeat IPC: 0.30236 cumulative IPC: 0.32700 (Simulation time: 0 hr 3 min 10 sec) 
Heartbeat CPU  0 instructions:  149000000 cycles:  215376483 heartbeat IPC: 0.56165 cumulative IPC: 0.32981 (Simulation time: 0 hr 3 min 11 sec) 
Heartbeat CPU  0 instructions:  150000002 cycles:  216876934 heartbeat IPC: 0.66647 cumulative IPC: 0.33317 (Simulation time: 0 hr 3 min 12 sec) 
Heartbeat CPU  0 instructions:  151000000 cycles:  219786445 heartbeat IPC: 0.34370 cumulative IPC: 0.33337 (Simulation time: 0 hr 3 min 13 sec) 
Heartbeat CPU  0 instructions:  152000000 cycles:  222256778 heartbeat IPC: 0.40480 cumulative IPC: 0.33451 (Simulation time: 0 hr 3 min 15 sec) 
Heartbeat CPU  0 instructions:  153000000 cycles:  226668111 heartbeat IPC: 0.22669 cumulative IPC: 0.33153 (Simulation time: 0 hr 3 min 17 sec) 
Heartbeat CPU  0 instructions:  154000002 cycles:  229977637 heartbeat IPC: 0.30216 cumulative IPC: 0.33094 (Simulation time: 0 hr 3 min 19 sec) 
Heartbeat CPU  0 instructions:  155000002 cycles:  231744970 heartbeat IPC: 0.56582 cumulative IPC: 0.33345 (Simulation time: 0 hr 3 min 21 sec) 
Heartbeat CPU  0 instructions:  156000000 cycles:  235955215 heartbeat IPC: 0.23752 cumulative IPC: 0.33107 (Simulation time: 0 hr 3 min 23 sec) 
Heartbeat CPU  0 instructions:  157000000 cycles:  238799955 heartbeat IPC: 0.35153 cumulative IPC: 0.33141 (Simulation time: 0 hr 3 min 25 sec) 
Heartbeat CPU  0 instructions:  158000003 cycles:  240558568 heartbeat IPC: 0.56863 cumulative IPC: 0.33381 (Simulation time: 0 hr 3 min 26 sec) 
Heartbeat CPU  0 instructions:  159000000 cycles:  241983658 heartbeat IPC: 0.70171 cumulative IPC: 0.33680 (Simulation time: 0 hr 3 min 27 sec) 
Heartbeat CPU  0 instructions:  160000000 cycles:  245533108 heartbeat IPC: 0.28173 cumulative IPC: 0.33571 (Simulation time: 0 hr 3 min 28 sec) 
Heartbeat CPU  0 instructions:  161000003 cycles:  248452276 heartbeat IPC: 0.34256 cumulative IPC: 0.33582 (Simulation time: 0 hr 3 min 31 sec) 
Heartbeat CPU  0 instructions:  162000001 cycles:  252110644 heartbeat IPC: 0.27335 cumulative IPC: 0.33458 (Simulation time: 0 hr 3 min 33 sec) 
Heartbeat CPU  0 instructions:  163000000 cycles:  255484247 heartbeat IPC: 0.29642 cumulative IPC: 0.33390 (Simulation time: 0 hr 3 min 35 sec) 
Heartbeat CPU  0 instructions:  164000000 cycles:  257642645 heartbeat IPC: 0.46331 cumulative IPC: 0.33536 (Simulation time: 0 hr 3 min 36 sec) 
Heartbeat CPU  0 instructions:  165000001 cycles:  262032135 heartbeat IPC: 0.22782 cumulative IPC: 0.33295 (Simulation time: 0 hr 3 min 39 sec) 
Heartbeat CPU  0 instructions:  166000000 cycles:  264017447 heartbeat IPC: 0.50370 cumulative IPC: 0.33466 (Simulation time: 0 hr 3 min 40 sec) 
Heartbeat CPU  0 instructions:  167000001 cycles:  265686364 heartbeat IPC: 0.59919 cumulative IPC: 0.33688 (Simulation time: 0 hr 3 min 41 sec) 
Heartbeat CPU  0 instructions:  168000000 cycles:  267639134 heartbeat IPC: 0.51209 cumulative IPC: 0.33859 (Simulation time: 0 hr 3 min 42 sec) 
Heartbeat CPU  0 instructions:  169000001 cycles:  270691793 heartbeat IPC: 0.32758 cumulative IPC: 0.33842 (Simulation time: 0 hr 3 min 44 sec) 
Heartbeat CPU  0 instructions:  170000002 cycles:  274991813 heartbeat IPC: 0.23256 cumulative IPC: 0.33624 (Simulation time: 0 hr 3 min 46 sec) 
Heartbeat CPU  0 instructions:  171000000 cycles:  277370099 heartbeat IPC: 0.42047 cumulative IPC: 0.33719 (Simulation time: 0 hr 3 min 48 sec) 
Heartbeat CPU  0 instructions:  172000000 cycles:  280643123 heartbeat IPC: 0.30553 cumulative IPC: 0.33670 (Simulation time: 0 hr 3 min 50 sec) 
Heartbeat CPU  0 instructions:  173000000 cycles:  283426800 heartbeat IPC: 0.35924 cumulative IPC: 0.33699 (Simulation time: 0 hr 3 min 52 sec) 
Heartbeat CPU  0 instructions:  174000000 cycles:  287395532 heartbeat IPC: 0.25197 cumulative IPC: 0.33546 (Simulation time: 0 hr 3 min 54 sec) 
Heartbeat CPU  0 instructions:  175000000 cycles:  289183576 heartbeat IPC: 0.55927 cumulative IPC: 0.33726 (Simulation time: 0 hr 3 min 55 sec) 
Heartbeat CPU  0 instructions:  176000000 cycles:  290767533 heartbeat IPC: 0.63133 cumulative IPC: 0.33934 (Simulation time: 0 hr 3 min 56 sec) 
Heartbeat CPU  0 instructions:  177000002 cycles:  293166016 heartbeat IPC: 0.41693 cumulative IPC: 0.34016 (Simulation time: 0 hr 3 min 57 sec) 
Heartbeat CPU  0 instructions:  178000001 cycles:  295760185 heartbeat IPC: 0.38548 cumulative IPC: 0.34068 (Simulation time: 0 hr 3 min 59 sec) 
Heartbeat CPU  0 instructions:  179000003 cycles:  300670712 heartbeat IPC: 0.20364 cumulative IPC: 0.33780 (Simulation time: 0 hr 4 min 1 sec) 
Heartbeat CPU  0 instructions:  180000000 cycles:  303709190 heartbeat IPC: 0.32911 cumulative IPC: 0.33769 (Simulation time: 0 hr 4 min 3 sec) 
Heartbeat CPU  0 instructions:  181000003 cycles:  305629482 heartbeat IPC: 0.52076 cumulative IPC: 0.33916 (Simulation time: 0 hr 4 min 5 sec) 
Heartbeat CPU  0 instructions:  182000000 cycles:  309668498 heartbeat IPC: 0.24758 cumulative IPC: 0.33764 (Simulation time: 0 hr 4 min 7 sec) 
Heartbeat CPU  0 instructions:  183000000 cycles:  312614789 heartbeat IPC: 0.33941 cumulative IPC: 0.33766 (Simulation time: 0 hr 4 min 9 sec) 
Heartbeat CPU  0 instructions:  184000000 cycles:  314370993 heartbeat IPC: 0.56941 cumulative IPC: 0.33930 (Simulation time: 0 hr 4 min 10 sec) 
Heartbeat CPU  0 instructions:  185000002 cycles:  315795338 heartbeat IPC: 0.70208 cumulative IPC: 0.34138 (Simulation time: 0 hr 4 min 11 sec) 
Heartbeat CPU  0 instructions:  186000001 cycles:  319225631 heartbeat IPC: 0.29152 cumulative IPC: 0.34070 (Simulation time: 0 hr 4 min 13 sec) 
Heartbeat CPU  0 instructions:  187000003 cycles:  322089165 heartbeat IPC: 0.34922 cumulative IPC: 0.34080 (Simulation time: 0 hr 4 min 15 sec) 
Heartbeat CPU  0 instructions:  188000000 cycles:  325728389 heartbeat IPC: 0.27478 cumulative IPC: 0.33987 (Simulation time: 0 hr 4 min 17 sec) 
Heartbeat CPU  0 instructions:  189000000 cycles:  329099615 heartbeat IPC: 0.29663 cumulative IPC: 0.33931 (Simulation time: 0 hr 4 min 19 sec) 
Heartbeat CPU  0 instructions:  190000001 cycles:  330981759 heartbeat IPC: 0.53131 cumulative IPC: 0.34068 (Simulation time: 0 hr 4 min 20 sec) 
Heartbeat CPU  0 instructions:  191000002 cycles:  335353248 heartbeat IPC: 0.22876 cumulative IPC: 0.33886 (Simulation time: 0 hr 4 min 23 sec) 
Heartbeat CPU  0 instructions:  192000000 cycles:  337770640 heartbeat IPC: 0.41367 cumulative IPC: 0.33953 (Simulation time: 0 hr 4 min 24 sec) 
Heartbeat CPU  0 instructions:  193000003 cycles:  339489522 heartbeat IPC: 0.58178 cumulative IPC: 0.34105 (Simulation time: 0 hr 4 min 25 sec) 
Heartbeat CPU  0 instructions:  194000001 cycles:  341155157 heartbeat IPC: 0.60037 cumulative IPC: 0.34263 (Simulation time: 0 hr 4 min 26 sec) 
Heartbeat CPU  0 instructions:  195000001 cycles:  344468629 heartbeat IPC: 0.30180 cumulative IPC: 0.34214 (Simulation time: 0 hr 4 min 28 sec) 
Heartbeat CPU  0 instructions:  196000000 cycles:  348129600 heartbeat IPC: 0.27315 cumulative IPC: 0.34124 (Simulation time: 0 hr 4 min 30 sec) 
Heartbeat CPU  0 instructions:  197000000 cycles:  351012747 heartbeat IPC: 0.34684 cumulative IPC: 0.34130 (Simulation time: 0 hr 4 min 32 sec) 
Heartbeat CPU  0 instructions:  198000000 cycles:  354377618 heartbeat IPC: 0.29719 cumulative IPC: 0.34078 (Simulation time: 0 hr 4 min 34 sec) 
Heartbeat CPU  0 instructions:  199000002 cycles:  356687921 heartbeat IPC: 0.43284 cumulative IPC: 0.34152 (Simulation time: 0 hr 4 min 36 sec) 
Heartbeat CPU  0 instructions:  200000000 cycles:  361124356 heartbeat IPC: 0.22541 cumulative IPC: 0.33977 (Simulation time: 0 hr 4 min 38 sec) 
Finished CPU 0 instructions: 100000000 cycles: 294319326 cumulative IPC: 0.33977 (Simulation time: 0 hr 4 min 38 sec) 

ChampSim completed all CPUs

[ROI Statistics]
Core_0_instructions 100000000
Core_0_cycles 294319326
Core_0_IPC 0.33977

Core_0_branch_prediction_accuracy 95.09858
Core_0_branch_MPKI 8.66907
Core_0_average_ROB_occupancy_at_mispredict 83.32514

Core_0_L1D_total_access 20560889
Core_0_L1D_total_hit 15332302
Core_0_L1D_total_miss 5228587
Core_0_L1D_loads 15093504
Core_0_L1D_load_hit 10693460
Core_0_L1D_load_miss 4400044
Core_0_L1D_RFOs 5467385
Core_0_L1D_RFO_hit 4638842
Core_0_L1D_RFO_miss 828543
Core_0_L1D_prefetches 0
Core_0_L1D_prefetch_hit 0
Core_0_L1D_prefetch_miss 0
Core_0_L1D_writebacks 0
Core_0_L1D_writeback_hit 0
Core_0_L1D_writeback_miss 0
Core_0_L1D_prefetch_requested 0
Core_0_L1D_prefetch_issued 0
Core_0_L1D_prefetch_useful 0
Core_0_L1D_prefetch_useless 0
Core_0_L1D_prefetch_late 0
Core_0_L1D_average_miss_latency 106.13014

Core_0_L1I_total_access 20973319
Core_0_L1I_total_hit 20972687
Core_0_L1I_total_miss 632
Core_0_L1I_loads 20973319
Core_0_L1I_load_hit 20972687
Core_0_L1I_load_miss 632
Core_0_L1I_RFOs 0
Core_0_L1I_RFO_hit 0
Core_0_L1I_RFO_miss 0
Core_0_L1I_prefetches 0
Core_0_L1I_prefetch_hit 0
Core_0_L1I_prefetch_miss 0
Core_0_L1I_writebacks 0
Core_0_L1I_writeback_hit 0
Core_0_L1I_writeback_miss 0
Core_0_L1I_prefetch_requested 0
Core_0_L1I_prefetch_issued 0
Core_0_L1I_prefetch_useful 0
Core_0_L1I_prefetch_useless 0
Core_0_L1I_prefetch_late 0
Core_0_L1I_average_miss_latency 200.46677

Core_0_L2C_total_access 11311491
Core_0_L2C_total_hit 6555144
Core_0_L2C_total_miss 4756347
Core_0_L2C_loads 4400055
Core_0_L2C_load_hit 2331368
Core_0_L2C_load_miss 2068687
Core_0_L2C_RFOs 828459
Core_0_L2C_RFO_hit 138463
Core_0_L2C_RFO_miss 689996
Core_0_L2C_prefetches 3702142
Core_0_L2C_prefetch_hit 1704567
Core_0_L2C_prefetch_miss 1997575
Core_0_L2C_writebacks 2380835
Core_0_L2C_writeback_hit 2380746
Core_0_L2C_writeback_miss 89
Core_0_L2C_prefetch_requested 9007396
Core_0_L2C_prefetch_issued 8866363
Core_0_L2C_prefetch_useful 2961474
Core_0_L2C_prefetch_useless 1687283
Core_0_L2C_prefetch_late 324225
Core_0_L2C_average_miss_latency 159.46617

Core_0_LLC_total_access 6378247
Core_0_LLC_total_hit 2974067
Core_0_LLC_total_miss 3404180
Core_0_LLC_loads 1777731
Core_0_LLC_load_hit 603708
Core_0_LLC_load_miss 1174023
Core_0_LLC_RFOs 689962
Core_0_LLC_RFO_hit 230469
Core_0_LLC_RFO_miss 459493
Core_0_LLC_prefetches 2288533
Core_0_LLC_prefetch_hit 975542
Core_0_LLC_prefetch_miss 1312991
Core_0_LLC_writebacks 1622021
Core_0_LLC_writeback_hit 1164348
Core_0_LLC_writeback_miss 457673
Core_0_LLC_prefetch_requested 0
Core_0_LLC_prefetch_issued 0
Core_0_LLC_prefetch_useful 83614
Core_0_LLC_prefetch_useless 2880585
Core_0_LLC_prefetch_late 0
Core_0_LLC_average_miss_latency 184.23109

Core_0_major_page_fault 0
Core_0_minor_page_fault 12935

CPU 0 L2C next line prefetcher final stats
Channel_0_RQ_row_buffer_hit 881059
Channel_0_RQ_row_buffer_miss 2064533
Channel_0_WQ_row_buffer_hit 327686
Channel_0_WQ_row_buffer_miss 427863
Channel_0_WQ_full 1313
Channel_0_dbus_congested 1689004

avg_congested_cycle 9
