*************************************************
   ChampSim Multicore Out-of-Order Simulator
   Last compiled: Dec 24 2023 16:41:37
*************************************************

trace_0 ./test_trace/450.soplex-247B.champsimtrace.xz
CPU 0 L1D next line prefetcher
Initialize DRRIP state
Assign rand_sets[0]: 454  LLC: 2048
rand_sets[0]: 454
Assign rand_sets[1]: 1662  LLC: 2048
rand_sets[1]: 1662
Assign rand_sets[2]: 1921  LLC: 2048
rand_sets[2]: 1921
Assign rand_sets[3]: 1131  LLC: 2048
rand_sets[3]: 1131
Assign rand_sets[4]: 331  LLC: 2048
rand_sets[4]: 331
Assign rand_sets[5]: 1531  LLC: 2048
rand_sets[5]: 1531
Assign rand_sets[6]: 482  LLC: 2048
rand_sets[6]: 482
Assign rand_sets[7]: 1275  LLC: 2048
rand_sets[7]: 1275
Assign rand_sets[8]: 1876  LLC: 2048
rand_sets[8]: 1876
Assign rand_sets[9]: 2038  LLC: 2048
rand_sets[9]: 2038
Assign rand_sets[10]: 701  LLC: 2048
rand_sets[10]: 701
Assign rand_sets[11]: 479  LLC: 2048
rand_sets[11]: 479
Assign rand_sets[12]: 892  LLC: 2048
rand_sets[12]: 892
Assign rand_sets[13]: 1820  LLC: 2048
rand_sets[13]: 1820
Assign rand_sets[14]: 1505  LLC: 2048
rand_sets[14]: 1505
Assign rand_sets[15]: 1159  LLC: 2048
rand_sets[15]: 1159
Assign rand_sets[16]: 513  LLC: 2048
rand_sets[16]: 513
Assign rand_sets[17]: 703  LLC: 2048
rand_sets[17]: 703
Assign rand_sets[18]: 561  LLC: 2048
rand_sets[18]: 561
Assign rand_sets[19]: 990  LLC: 2048
rand_sets[19]: 990
Assign rand_sets[20]: 342  LLC: 2048
rand_sets[20]: 342
Assign rand_sets[21]: 882  LLC: 2048
rand_sets[21]: 882
Assign rand_sets[22]: 15  LLC: 2048
rand_sets[22]: 15
Assign rand_sets[23]: 71  LLC: 2048
rand_sets[23]: 71
Assign rand_sets[24]: 1127  LLC: 2048
rand_sets[24]: 1127
Assign rand_sets[25]: 1382  LLC: 2048
rand_sets[25]: 1382
Assign rand_sets[26]: 647  LLC: 2048
rand_sets[26]: 647
Assign rand_sets[27]: 857  LLC: 2048
rand_sets[27]: 857
Assign rand_sets[28]: 1450  LLC: 2048
rand_sets[28]: 1450
Assign rand_sets[29]: 1160  LLC: 2048
rand_sets[29]: 1160
Assign rand_sets[30]: 1852  LLC: 2048
rand_sets[30]: 1852
Assign rand_sets[31]: 1881  LLC: 2048
rand_sets[31]: 1881
Assign rand_sets[32]: 1770  LLC: 2048
rand_sets[32]: 1770
Assign rand_sets[33]: 1622  LLC: 2048
rand_sets[33]: 1622
Assign rand_sets[34]: 275  LLC: 2048
rand_sets[34]: 275
Assign rand_sets[35]: 635  LLC: 2048
rand_sets[35]: 635
Assign rand_sets[36]: 466  LLC: 2048
rand_sets[36]: 466
Assign rand_sets[37]: 1413  LLC: 2048
rand_sets[37]: 1413
Assign rand_sets[38]: 417  LLC: 2048
rand_sets[38]: 417
Assign rand_sets[39]: 472  LLC: 2048
rand_sets[39]: 472
Assign rand_sets[40]: 1340  LLC: 2048
rand_sets[40]: 1340
Assign rand_sets[41]: 852  LLC: 2048
rand_sets[41]: 852
Assign rand_sets[42]: 1365  LLC: 2048
rand_sets[42]: 1365
Assign rand_sets[43]: 47  LLC: 2048
rand_sets[43]: 47
Assign rand_sets[44]: 823  LLC: 2048
rand_sets[44]: 823
Assign rand_sets[45]: 686  LLC: 2048
rand_sets[45]: 686
Assign rand_sets[46]: 1637  LLC: 2048
rand_sets[46]: 1637
Assign rand_sets[47]: 1115  LLC: 2048
rand_sets[47]: 1115
Assign rand_sets[48]: 986  LLC: 2048
rand_sets[48]: 986
Assign rand_sets[49]: 258  LLC: 2048
rand_sets[49]: 258
Assign rand_sets[50]: 633  LLC: 2048
rand_sets[50]: 633
Assign rand_sets[51]: 920  LLC: 2048
rand_sets[51]: 920
Assign rand_sets[52]: 204  LLC: 2048
rand_sets[52]: 204
Assign rand_sets[53]: 227  LLC: 2048
rand_sets[53]: 227
Assign rand_sets[54]: 1818  LLC: 2048
rand_sets[54]: 1818
Assign rand_sets[55]: 886  LLC: 2048
rand_sets[55]: 886
Assign rand_sets[56]: 1422  LLC: 2048
rand_sets[56]: 1422
Assign rand_sets[57]: 607  LLC: 2048
rand_sets[57]: 607
Assign rand_sets[58]: 217  LLC: 2048
rand_sets[58]: 217
Assign rand_sets[59]: 1945  LLC: 2048
rand_sets[59]: 1945
Assign rand_sets[60]: 143  LLC: 2048
rand_sets[60]: 143
Assign rand_sets[61]: 1311  LLC: 2048
rand_sets[61]: 1311
Assign rand_sets[62]: 319  LLC: 2048
rand_sets[62]: 319
Assign rand_sets[63]: 1846  LLC: 2048
rand_sets[63]: 1846
LLC Next Line Prefetcher
warmup_instructions 100000000
simulation_instructions 100000000
champsim_seed 223

num_cpus 1
cpu_freq 4000
dram_io_freq 2400
page_size 4096
block_size 64
max_read_per_cycle 8
max_fill_per_cycle 1
dram_channels 1
dram_ranks 1
dram_banks 8
dram_rows 65536
dram_columns 128
dram_row_size 8
dram_size 4096
dram_pages 1048576

fetch_width 6
decode_width 6
exec_width 4
lq_width 2
sq_width 2
retire_width 4
scheduler_size 128
branch_mispredict_penalty 20
rob_size 256
lq_size 72
sq_size 56
num_instr_destinations_sparc 4
num_instr_destinations 2
num_instr_sources 4

itlb_set 16
itlb_way 8
itlb_rq_size 16
itlb_wq_size 16
itlb_pq_size 0
itlb_mshr_size 8
itlb_latency 1

dtlb_set 16
dtlb_way 4
dtlb_rq_size 16
dtlb_wq_size 16
dtlb_pq_size 0
dtlb_mshr_size 8
dtlb_latency 1

stlb_set 128
stlb_way 12
stlb_rq_size 32
stlb_wq_size 32
stlb_pq_size 0
stlb_mshr_size 16
stlb_latency 8

l1i_size 32
l1i_set 64
l1i_way 8
l1i_rq_size 64
l1i_wq_size 64
l1i_pq_size 8
l1i_mshr_size 8
l1i_latency 1

l1d_size 32
l1d_set 64
l1d_way 8
l1d_rq_size 64
l1d_wq_size 64
l1d_pq_size 8
l1d_mshr_size 16
l1d_latency 4

l2c_size 512
l2c_set 1024
l2c_way 8
l2c_rq_size 32
l2c_wq_size 32
l2c_pq_size 16
l2c_mshr_size 32
l2c_latency 10

llc_size 2048
llc_set 2048
llc_way 16
llc_rq_size 32
llc_wq_size 32
llc_pq_size 32
llc_mshr_size 64
llc_latency 20

dram_channel_width 8
dram_wq_size 64
dram_rq_size 64
tRP 15
tRCD 15
tCAS 12.5
dram_dbus_turn_around_time 30
dram_write_high_wm 56
dram_write_low_wm 48
min_dram_writes_per_switch 16
dram_mtps 2400
dram_dbus_return_time 13


Heartbeat CPU  0 instructions:    1000002 cycles:     753312 heartbeat IPC: 1.32747 cumulative IPC: 1.32747 (Simulation time: 0 hr 0 min 1 sec) 
Heartbeat CPU  0 instructions:    2000001 cycles:    1391933 heartbeat IPC: 1.56587 cumulative IPC: 1.43685 (Simulation time: 0 hr 0 min 2 sec) 
Heartbeat CPU  0 instructions:    3000001 cycles:    2116539 heartbeat IPC: 1.38006 cumulative IPC: 1.41741 (Simulation time: 0 hr 0 min 4 sec) 
Heartbeat CPU  0 instructions:    4000000 cycles:    2657596 heartbeat IPC: 1.84823 cumulative IPC: 1.50512 (Simulation time: 0 hr 0 min 5 sec) 
Heartbeat CPU  0 instructions:    5000000 cycles:    3562938 heartbeat IPC: 1.10456 cumulative IPC: 1.40334 (Simulation time: 0 hr 0 min 6 sec) 
Heartbeat CPU  0 instructions:    6000001 cycles:    4451491 heartbeat IPC: 1.12543 cumulative IPC: 1.34786 (Simulation time: 0 hr 0 min 7 sec) 
Heartbeat CPU  0 instructions:    7000000 cycles:    5248981 heartbeat IPC: 1.25393 cumulative IPC: 1.33359 (Simulation time: 0 hr 0 min 9 sec) 
Heartbeat CPU  0 instructions:    8000000 cycles:    5939335 heartbeat IPC: 1.44853 cumulative IPC: 1.34695 (Simulation time: 0 hr 0 min 10 sec) 
Heartbeat CPU  0 instructions:    9000001 cycles:    6556638 heartbeat IPC: 1.61995 cumulative IPC: 1.37265 (Simulation time: 0 hr 0 min 11 sec) 
Heartbeat CPU  0 instructions:   10000000 cycles:    7103284 heartbeat IPC: 1.82934 cumulative IPC: 1.40780 (Simulation time: 0 hr 0 min 12 sec) 
Heartbeat CPU  0 instructions:   11000003 cycles:    7690687 heartbeat IPC: 1.70241 cumulative IPC: 1.43030 (Simulation time: 0 hr 0 min 14 sec) 
Heartbeat CPU  0 instructions:   12000000 cycles:    8360535 heartbeat IPC: 1.49287 cumulative IPC: 1.43531 (Simulation time: 0 hr 0 min 15 sec) 
Heartbeat CPU  0 instructions:   13000000 cycles:    9238250 heartbeat IPC: 1.13932 cumulative IPC: 1.40719 (Simulation time: 0 hr 0 min 15 sec) 
Heartbeat CPU  0 instructions:   14000002 cycles:    9984101 heartbeat IPC: 1.34075 cumulative IPC: 1.40223 (Simulation time: 0 hr 0 min 16 sec) 
Heartbeat CPU  0 instructions:   15000002 cycles:   10573361 heartbeat IPC: 1.69704 cumulative IPC: 1.41866 (Simulation time: 0 hr 0 min 17 sec) 
Heartbeat CPU  0 instructions:   16000000 cycles:   11095263 heartbeat IPC: 1.91606 cumulative IPC: 1.44206 (Simulation time: 0 hr 0 min 18 sec) 
Heartbeat CPU  0 instructions:   17000000 cycles:   11902866 heartbeat IPC: 1.23823 cumulative IPC: 1.42823 (Simulation time: 0 hr 0 min 19 sec) 
Heartbeat CPU  0 instructions:   18000001 cycles:   12492263 heartbeat IPC: 1.69665 cumulative IPC: 1.44089 (Simulation time: 0 hr 0 min 21 sec) 
Heartbeat CPU  0 instructions:   19000001 cycles:   13032645 heartbeat IPC: 1.85054 cumulative IPC: 1.45788 (Simulation time: 0 hr 0 min 22 sec) 
Heartbeat CPU  0 instructions:   20000000 cycles:   13624636 heartbeat IPC: 1.68921 cumulative IPC: 1.46793 (Simulation time: 0 hr 0 min 23 sec) 
Heartbeat CPU  0 instructions:   21000001 cycles:   14275688 heartbeat IPC: 1.53598 cumulative IPC: 1.47103 (Simulation time: 0 hr 0 min 24 sec) 
Heartbeat CPU  0 instructions:   22000003 cycles:   15151435 heartbeat IPC: 1.14188 cumulative IPC: 1.45201 (Simulation time: 0 hr 0 min 25 sec) 
Heartbeat CPU  0 instructions:   23000001 cycles:   15915773 heartbeat IPC: 1.30832 cumulative IPC: 1.44511 (Simulation time: 0 hr 0 min 26 sec) 
Heartbeat CPU  0 instructions:   24000000 cycles:   16503090 heartbeat IPC: 1.70266 cumulative IPC: 1.45427 (Simulation time: 0 hr 0 min 26 sec) 
Heartbeat CPU  0 instructions:   25000000 cycles:   17038338 heartbeat IPC: 1.86829 cumulative IPC: 1.46728 (Simulation time: 0 hr 0 min 28 sec) 
Heartbeat CPU  0 instructions:   26000001 cycles:   17835896 heartbeat IPC: 1.25383 cumulative IPC: 1.45773 (Simulation time: 0 hr 0 min 29 sec) 
Heartbeat CPU  0 instructions:   27000003 cycles:   18391094 heartbeat IPC: 1.80116 cumulative IPC: 1.46810 (Simulation time: 0 hr 0 min 30 sec) 
Heartbeat CPU  0 instructions:   28000000 cycles:   18949348 heartbeat IPC: 1.79129 cumulative IPC: 1.47762 (Simulation time: 0 hr 0 min 31 sec) 
Heartbeat CPU  0 instructions:   29000002 cycles:   19503352 heartbeat IPC: 1.80504 cumulative IPC: 1.48692 (Simulation time: 0 hr 0 min 32 sec) 
Heartbeat CPU  0 instructions:   30000001 cycles:   20082160 heartbeat IPC: 1.72769 cumulative IPC: 1.49386 (Simulation time: 0 hr 0 min 33 sec) 
Heartbeat CPU  0 instructions:   31000002 cycles:   20947311 heartbeat IPC: 1.15587 cumulative IPC: 1.47990 (Simulation time: 0 hr 0 min 34 sec) 
Heartbeat CPU  0 instructions:   32000000 cycles:   21765363 heartbeat IPC: 1.22241 cumulative IPC: 1.47023 (Simulation time: 0 hr 0 min 35 sec) 
Heartbeat CPU  0 instructions:   33000000 cycles:   22357858 heartbeat IPC: 1.68778 cumulative IPC: 1.47599 (Simulation time: 0 hr 0 min 36 sec) 
Heartbeat CPU  0 instructions:   34000000 cycles:   22962365 heartbeat IPC: 1.65424 cumulative IPC: 1.48068 (Simulation time: 0 hr 0 min 37 sec) 
Heartbeat CPU  0 instructions:   35000002 cycles:   23686416 heartbeat IPC: 1.38112 cumulative IPC: 1.47764 (Simulation time: 0 hr 0 min 38 sec) 
Heartbeat CPU  0 instructions:   36000000 cycles:   24270873 heartbeat IPC: 1.71099 cumulative IPC: 1.48326 (Simulation time: 0 hr 0 min 39 sec) 
Heartbeat CPU  0 instructions:   37000002 cycles:   24812407 heartbeat IPC: 1.84661 cumulative IPC: 1.49119 (Simulation time: 0 hr 0 min 40 sec) 
Heartbeat CPU  0 instructions:   38000002 cycles:   25378448 heartbeat IPC: 1.76666 cumulative IPC: 1.49733 (Simulation time: 0 hr 0 min 42 sec) 
Heartbeat CPU  0 instructions:   39000000 cycles:   25951728 heartbeat IPC: 1.74434 cumulative IPC: 1.50279 (Simulation time: 0 hr 0 min 43 sec) 
Heartbeat CPU  0 instructions:   40000000 cycles:   26721509 heartbeat IPC: 1.29907 cumulative IPC: 1.49692 (Simulation time: 0 hr 0 min 44 sec) 
Heartbeat CPU  0 instructions:   41000001 cycles:   27584296 heartbeat IPC: 1.15904 cumulative IPC: 1.48635 (Simulation time: 0 hr 0 min 45 sec) 
Heartbeat CPU  0 instructions:   42000001 cycles:   28233295 heartbeat IPC: 1.54083 cumulative IPC: 1.48761 (Simulation time: 0 hr 0 min 45 sec) 
Heartbeat CPU  0 instructions:   43000000 cycles:   28855214 heartbeat IPC: 1.60792 cumulative IPC: 1.49020 (Simulation time: 0 hr 0 min 46 sec) 
Heartbeat CPU  0 instructions:   44000000 cycles:   29479712 heartbeat IPC: 1.60129 cumulative IPC: 1.49255 (Simulation time: 0 hr 0 min 48 sec) 
Heartbeat CPU  0 instructions:   45000000 cycles:   30193360 heartbeat IPC: 1.40125 cumulative IPC: 1.49039 (Simulation time: 0 hr 0 min 49 sec) 
Heartbeat CPU  0 instructions:   46000001 cycles:   30730471 heartbeat IPC: 1.86181 cumulative IPC: 1.49689 (Simulation time: 0 hr 0 min 50 sec) 
Heartbeat CPU  0 instructions:   47000000 cycles:   31290094 heartbeat IPC: 1.78692 cumulative IPC: 1.50207 (Simulation time: 0 hr 0 min 51 sec) 
Heartbeat CPU  0 instructions:   48000000 cycles:   31869695 heartbeat IPC: 1.72532 cumulative IPC: 1.50613 (Simulation time: 0 hr 0 min 52 sec) 
Heartbeat CPU  0 instructions:   49000001 cycles:   32603609 heartbeat IPC: 1.36256 cumulative IPC: 1.50290 (Simulation time: 0 hr 0 min 53 sec) 
Heartbeat CPU  0 instructions:   50000001 cycles:   33468796 heartbeat IPC: 1.15582 cumulative IPC: 1.49393 (Simulation time: 0 hr 0 min 54 sec) 
Heartbeat CPU  0 instructions:   51000003 cycles:   34160800 heartbeat IPC: 1.44508 cumulative IPC: 1.49294 (Simulation time: 0 hr 0 min 55 sec) 
Heartbeat CPU  0 instructions:   52000000 cycles:   34751214 heartbeat IPC: 1.69372 cumulative IPC: 1.49635 (Simulation time: 0 hr 0 min 56 sec) 
Heartbeat CPU  0 instructions:   53000000 cycles:   35327457 heartbeat IPC: 1.73538 cumulative IPC: 1.50025 (Simulation time: 0 hr 0 min 57 sec) 
Heartbeat CPU  0 instructions:   54000002 cycles:   36081759 heartbeat IPC: 1.32573 cumulative IPC: 1.49660 (Simulation time: 0 hr 0 min 58 sec) 
Heartbeat CPU  0 instructions:   55000001 cycles:   36648805 heartbeat IPC: 1.76352 cumulative IPC: 1.50073 (Simulation time: 0 hr 0 min 59 sec) 
Heartbeat CPU  0 instructions:   56000000 cycles:   37201989 heartbeat IPC: 1.80771 cumulative IPC: 1.50530 (Simulation time: 0 hr 1 min 1 sec) 
Heartbeat CPU  0 instructions:   57000002 cycles:   37783611 heartbeat IPC: 1.71933 cumulative IPC: 1.50859 (Simulation time: 0 hr 1 min 2 sec) 
Heartbeat CPU  0 instructions:   58000001 cycles:   38510526 heartbeat IPC: 1.37568 cumulative IPC: 1.50608 (Simulation time: 0 hr 1 min 3 sec) 
Heartbeat CPU  0 instructions:   59000001 cycles:   39377861 heartbeat IPC: 1.15296 cumulative IPC: 1.49830 (Simulation time: 0 hr 1 min 3 sec) 
Heartbeat CPU  0 instructions:   60000000 cycles:   40095027 heartbeat IPC: 1.39438 cumulative IPC: 1.49644 (Simulation time: 0 hr 1 min 4 sec) 
Heartbeat CPU  0 instructions:   61000003 cycles:   40694430 heartbeat IPC: 1.66833 cumulative IPC: 1.49898 (Simulation time: 0 hr 1 min 5 sec) 
Heartbeat CPU  0 instructions:   62000001 cycles:   41259219 heartbeat IPC: 1.77057 cumulative IPC: 1.50269 (Simulation time: 0 hr 1 min 6 sec) 
Heartbeat CPU  0 instructions:   63000000 cycles:   42043984 heartbeat IPC: 1.27427 cumulative IPC: 1.49843 (Simulation time: 0 hr 1 min 7 sec) 
Heartbeat CPU  0 instructions:   64000000 cycles:   42621808 heartbeat IPC: 1.73063 cumulative IPC: 1.50158 (Simulation time: 0 hr 1 min 9 sec) 
Heartbeat CPU  0 instructions:   65000003 cycles:   43173197 heartbeat IPC: 1.81361 cumulative IPC: 1.50556 (Simulation time: 0 hr 1 min 10 sec) 
Heartbeat CPU  0 instructions:   66000003 cycles:   43756341 heartbeat IPC: 1.71484 cumulative IPC: 1.50835 (Simulation time: 0 hr 1 min 11 sec) 
Heartbeat CPU  0 instructions:   67000000 cycles:   44437470 heartbeat IPC: 1.46815 cumulative IPC: 1.50774 (Simulation time: 0 hr 1 min 12 sec) 
Heartbeat CPU  0 instructions:   68000000 cycles:   45310270 heartbeat IPC: 1.14574 cumulative IPC: 1.50076 (Simulation time: 0 hr 1 min 13 sec) 
Heartbeat CPU  0 instructions:   69000001 cycles:   46059513 heartbeat IPC: 1.33468 cumulative IPC: 1.49806 (Simulation time: 0 hr 1 min 14 sec) 
Heartbeat CPU  0 instructions:   70000000 cycles:   46660822 heartbeat IPC: 1.66304 cumulative IPC: 1.50019 (Simulation time: 0 hr 1 min 14 sec) 
Heartbeat CPU  0 instructions:   71000002 cycles:   47186834 heartbeat IPC: 1.90110 cumulative IPC: 1.50466 (Simulation time: 0 hr 1 min 15 sec) 
Heartbeat CPU  0 instructions:   72000000 cycles:   47989785 heartbeat IPC: 1.24540 cumulative IPC: 1.50032 (Simulation time: 0 hr 1 min 17 sec) 
Heartbeat CPU  0 instructions:   73000001 cycles:   48568700 heartbeat IPC: 1.72737 cumulative IPC: 1.50303 (Simulation time: 0 hr 1 min 18 sec) 
Heartbeat CPU  0 instructions:   74000002 cycles:   49114380 heartbeat IPC: 1.83258 cumulative IPC: 1.50669 (Simulation time: 0 hr 1 min 19 sec) 
Heartbeat CPU  0 instructions:   75000001 cycles:   49707034 heartbeat IPC: 1.68732 cumulative IPC: 1.50884 (Simulation time: 0 hr 1 min 20 sec) 
Heartbeat CPU  0 instructions:   76000000 cycles:   50353178 heartbeat IPC: 1.54764 cumulative IPC: 1.50934 (Simulation time: 0 hr 1 min 21 sec) 
Heartbeat CPU  0 instructions:   77000001 cycles:   51223243 heartbeat IPC: 1.14934 cumulative IPC: 1.50322 (Simulation time: 0 hr 1 min 22 sec) 
Heartbeat CPU  0 instructions:   78000001 cycles:   51994420 heartbeat IPC: 1.29672 cumulative IPC: 1.50016 (Simulation time: 0 hr 1 min 23 sec) 
Heartbeat CPU  0 instructions:   79000003 cycles:   52597073 heartbeat IPC: 1.65933 cumulative IPC: 1.50198 (Simulation time: 0 hr 1 min 24 sec) 
Heartbeat CPU  0 instructions:   80000000 cycles:   53153461 heartbeat IPC: 1.79730 cumulative IPC: 1.50508 (Simulation time: 0 hr 1 min 25 sec) 
Heartbeat CPU  0 instructions:   81000001 cycles:   53940585 heartbeat IPC: 1.27045 cumulative IPC: 1.50165 (Simulation time: 0 hr 1 min 26 sec) 
Heartbeat CPU  0 instructions:   82000002 cycles:   54531679 heartbeat IPC: 1.69178 cumulative IPC: 1.50371 (Simulation time: 0 hr 1 min 27 sec) 
Heartbeat CPU  0 instructions:   83000003 cycles:   55094115 heartbeat IPC: 1.77798 cumulative IPC: 1.50651 (Simulation time: 0 hr 1 min 28 sec) 
Heartbeat CPU  0 instructions:   84000000 cycles:   55646188 heartbeat IPC: 1.81135 cumulative IPC: 1.50954 (Simulation time: 0 hr 1 min 30 sec) 
Heartbeat CPU  0 instructions:   85000001 cycles:   56224538 heartbeat IPC: 1.72906 cumulative IPC: 1.51180 (Simulation time: 0 hr 1 min 31 sec) 
Heartbeat CPU  0 instructions:   86000000 cycles:   57093141 heartbeat IPC: 1.15127 cumulative IPC: 1.50631 (Simulation time: 0 hr 1 min 31 sec) 
Heartbeat CPU  0 instructions:   87000000 cycles:   57917237 heartbeat IPC: 1.21345 cumulative IPC: 1.50214 (Simulation time: 0 hr 1 min 32 sec) 
Heartbeat CPU  0 instructions:   88000000 cycles:   58529946 heartbeat IPC: 1.63210 cumulative IPC: 1.50350 (Simulation time: 0 hr 1 min 33 sec) 
Heartbeat CPU  0 instructions:   89000003 cycles:   59155244 heartbeat IPC: 1.59924 cumulative IPC: 1.50452 (Simulation time: 0 hr 1 min 34 sec) 
Heartbeat CPU  0 instructions:   90000003 cycles:   59849087 heartbeat IPC: 1.44125 cumulative IPC: 1.50378 (Simulation time: 0 hr 1 min 35 sec) 
Heartbeat CPU  0 instructions:   91000001 cycles:   60501702 heartbeat IPC: 1.53229 cumulative IPC: 1.50409 (Simulation time: 0 hr 1 min 37 sec) 
Heartbeat CPU  0 instructions:   92000000 cycles:   61075768 heartbeat IPC: 1.74196 cumulative IPC: 1.50633 (Simulation time: 0 hr 1 min 38 sec) 
Heartbeat CPU  0 instructions:   93000001 cycles:   61620173 heartbeat IPC: 1.83687 cumulative IPC: 1.50925 (Simulation time: 0 hr 1 min 39 sec) 
Heartbeat CPU  0 instructions:   94000002 cycles:   62200046 heartbeat IPC: 1.72452 cumulative IPC: 1.51125 (Simulation time: 0 hr 1 min 40 sec) 
Heartbeat CPU  0 instructions:   95000003 cycles:   63032040 heartbeat IPC: 1.20193 cumulative IPC: 1.50717 (Simulation time: 0 hr 1 min 41 sec) 
Heartbeat CPU  0 instructions:   96000000 cycles:   63876807 heartbeat IPC: 1.18375 cumulative IPC: 1.50289 (Simulation time: 0 hr 1 min 42 sec) 
Heartbeat CPU  0 instructions:   97000002 cycles:   64507738 heartbeat IPC: 1.58496 cumulative IPC: 1.50370 (Simulation time: 0 hr 1 min 42 sec) 
Heartbeat CPU  0 instructions:   98000003 cycles:   65137259 heartbeat IPC: 1.58851 cumulative IPC: 1.50452 (Simulation time: 0 hr 1 min 43 sec) 
Heartbeat CPU  0 instructions:   99000002 cycles:   65789229 heartbeat IPC: 1.53381 cumulative IPC: 1.50481 (Simulation time: 0 hr 1 min 45 sec) 
Heartbeat CPU  0 instructions:  100000000 cycles:   66373685 heartbeat IPC: 1.71099 cumulative IPC: 1.50662 (Simulation time: 0 hr 1 min 46 sec) 

Warmup complete CPU  0 instructions:  100000002 cycles:   66373687 (Simulation time: 0 hr 1 min 46 sec) 

Heartbeat CPU  0 instructions:  101000001 cycles:   72758468 heartbeat IPC: 0.15662 cumulative IPC: 0.15662 (Simulation time: 0 hr 1 min 48 sec) 
Heartbeat CPU  0 instructions:  102000001 cycles:   76213943 heartbeat IPC: 0.28940 cumulative IPC: 0.20325 (Simulation time: 0 hr 1 min 51 sec) 
Heartbeat CPU  0 instructions:  103000001 cycles:   80626879 heartbeat IPC: 0.22661 cumulative IPC: 0.21048 (Simulation time: 0 hr 1 min 53 sec) 
Heartbeat CPU  0 instructions:  104000000 cycles:   85072012 heartbeat IPC: 0.22496 cumulative IPC: 0.21392 (Simulation time: 0 hr 1 min 56 sec) 
Heartbeat CPU  0 instructions:  105000003 cycles:   88351898 heartbeat IPC: 0.30489 cumulative IPC: 0.22750 (Simulation time: 0 hr 1 min 59 sec) 
Heartbeat CPU  0 instructions:  106000001 cycles:   91297769 heartbeat IPC: 0.33946 cumulative IPC: 0.24073 (Simulation time: 0 hr 2 min 1 sec) 
Heartbeat CPU  0 instructions:  107000003 cycles:   95184278 heartbeat IPC: 0.25730 cumulative IPC: 0.24297 (Simulation time: 0 hr 2 min 3 sec) 
Heartbeat CPU  0 instructions:  108000000 cycles:   98596285 heartbeat IPC: 0.29308 cumulative IPC: 0.24827 (Simulation time: 0 hr 2 min 5 sec) 
Heartbeat CPU  0 instructions:  109000000 cycles:  102020421 heartbeat IPC: 0.29204 cumulative IPC: 0.25248 (Simulation time: 0 hr 2 min 7 sec) 
Heartbeat CPU  0 instructions:  110000001 cycles:  104172732 heartbeat IPC: 0.46462 cumulative IPC: 0.26456 (Simulation time: 0 hr 2 min 8 sec) 
Heartbeat CPU  0 instructions:  111000003 cycles:  106636145 heartbeat IPC: 0.40594 cumulative IPC: 0.27321 (Simulation time: 0 hr 2 min 10 sec) 
Heartbeat CPU  0 instructions:  112000000 cycles:  108526516 heartbeat IPC: 0.52900 cumulative IPC: 0.28468 (Simulation time: 0 hr 2 min 12 sec) 
Heartbeat CPU  0 instructions:  113000000 cycles:  110387400 heartbeat IPC: 0.53738 cumulative IPC: 0.29536 (Simulation time: 0 hr 2 min 14 sec) 
Heartbeat CPU  0 instructions:  114000001 cycles:  111825357 heartbeat IPC: 0.69543 cumulative IPC: 0.30802 (Simulation time: 0 hr 2 min 15 sec) 
Heartbeat CPU  0 instructions:  115000000 cycles:  113831220 heartbeat IPC: 0.49854 cumulative IPC: 0.31607 (Simulation time: 0 hr 2 min 17 sec) 
Heartbeat CPU  0 instructions:  116000000 cycles:  117758341 heartbeat IPC: 0.25464 cumulative IPC: 0.31138 (Simulation time: 0 hr 2 min 19 sec) 
Heartbeat CPU  0 instructions:  117000000 cycles:  120595890 heartbeat IPC: 0.35242 cumulative IPC: 0.31352 (Simulation time: 0 hr 2 min 21 sec) 
Heartbeat CPU  0 instructions:  118000002 cycles:  123348085 heartbeat IPC: 0.36335 cumulative IPC: 0.31593 (Simulation time: 0 hr 2 min 23 sec) 
Heartbeat CPU  0 instructions:  119000000 cycles:  126554831 heartbeat IPC: 0.31184 cumulative IPC: 0.31571 (Simulation time: 0 hr 2 min 25 sec) 
Heartbeat CPU  0 instructions:  120000000 cycles:  128843576 heartbeat IPC: 0.43692 cumulative IPC: 0.32015 (Simulation time: 0 hr 2 min 27 sec) 
Heartbeat CPU  0 instructions:  121000001 cycles:  133346792 heartbeat IPC: 0.22206 cumulative IPC: 0.31356 (Simulation time: 0 hr 2 min 30 sec) 
Heartbeat CPU  0 instructions:  122000001 cycles:  137227068 heartbeat IPC: 0.25771 cumulative IPC: 0.31050 (Simulation time: 0 hr 2 min 32 sec) 
Heartbeat CPU  0 instructions:  123000000 cycles:  138995875 heartbeat IPC: 0.56535 cumulative IPC: 0.31671 (Simulation time: 0 hr 2 min 33 sec) 
Heartbeat CPU  0 instructions:  124000000 cycles:  140466752 heartbeat IPC: 0.67987 cumulative IPC: 0.32392 (Simulation time: 0 hr 2 min 34 sec) 
Heartbeat CPU  0 instructions:  125000000 cycles:  144222126 heartbeat IPC: 0.26629 cumulative IPC: 0.32114 (Simulation time: 0 hr 2 min 36 sec) 
Heartbeat CPU  0 instructions:  126000000 cycles:  146739602 heartbeat IPC: 0.39722 cumulative IPC: 0.32352 (Simulation time: 0 hr 2 min 38 sec) 
Heartbeat CPU  0 instructions:  127000002 cycles:  150196085 heartbeat IPC: 0.28931 cumulative IPC: 0.32211 (Simulation time: 0 hr 2 min 40 sec) 
Heartbeat CPU  0 instructions:  128000000 cycles:  153548781 heartbeat IPC: 0.29827 cumulative IPC: 0.32119 (Simulation time: 0 hr 2 min 42 sec) 
Heartbeat CPU  0 instructions:  129000001 cycles:  156012874 heartbeat IPC: 0.40583 cumulative IPC: 0.32352 (Simulation time: 0 hr 2 min 44 sec) 
Heartbeat CPU  0 instructions:  130000000 cycles:  161663238 heartbeat IPC: 0.17698 cumulative IPC: 0.31483 (Simulation time: 0 hr 2 min 48 sec) 
Heartbeat CPU  0 instructions:  131000000 cycles:  163622298 heartbeat IPC: 0.51045 cumulative IPC: 0.31877 (Simulation time: 0 hr 2 min 49 sec) 
Heartbeat CPU  0 instructions:  132000000 cycles:  165292041 heartbeat IPC: 0.59889 cumulative IPC: 0.32350 (Simulation time: 0 hr 2 min 50 sec) 
Heartbeat CPU  0 instructions:  133000000 cycles:  167411826 heartbeat IPC: 0.47175 cumulative IPC: 0.32661 (Simulation time: 0 hr 2 min 51 sec) 
Heartbeat CPU  0 instructions:  134000000 cycles:  171017967 heartbeat IPC: 0.27730 cumulative IPC: 0.32491 (Simulation time: 0 hr 2 min 53 sec) 
Heartbeat CPU  0 instructions:  135000002 cycles:  174250220 heartbeat IPC: 0.30938 cumulative IPC: 0.32444 (Simulation time: 0 hr 2 min 55 sec) 
Heartbeat CPU  0 instructions:  136000000 cycles:  176529110 heartbeat IPC: 0.43881 cumulative IPC: 0.32681 (Simulation time: 0 hr 2 min 57 sec) 
Heartbeat CPU  0 instructions:  137000000 cycles:  179911331 heartbeat IPC: 0.29566 cumulative IPC: 0.32588 (Simulation time: 0 hr 2 min 59 sec) 
Heartbeat CPU  0 instructions:  138000003 cycles:  183002441 heartbeat IPC: 0.32351 cumulative IPC: 0.32582 (Simulation time: 0 hr 3 min 1 sec) 
Heartbeat CPU  0 instructions:  139000000 cycles:  188075480 heartbeat IPC: 0.19712 cumulative IPC: 0.32046 (Simulation time: 0 hr 3 min 4 sec) 
Heartbeat CPU  0 instructions:  140000000 cycles:  189859645 heartbeat IPC: 0.56049 cumulative IPC: 0.32392 (Simulation time: 0 hr 3 min 5 sec) 
Heartbeat CPU  0 instructions:  141000000 cycles:  191447405 heartbeat IPC: 0.62982 cumulative IPC: 0.32781 (Simulation time: 0 hr 3 min 6 sec) 
Heartbeat CPU  0 instructions:  142000000 cycles:  194210586 heartbeat IPC: 0.36190 cumulative IPC: 0.32854 (Simulation time: 0 hr 3 min 8 sec) 
Heartbeat CPU  0 instructions:  143000000 cycles:  197099830 heartbeat IPC: 0.34611 cumulative IPC: 0.32893 (Simulation time: 0 hr 3 min 10 sec) 
Heartbeat CPU  0 instructions:  144000000 cycles:  200727507 heartbeat IPC: 0.27566 cumulative IPC: 0.32749 (Simulation time: 0 hr 3 min 12 sec) 
Heartbeat CPU  0 instructions:  145000002 cycles:  203347257 heartbeat IPC: 0.38172 cumulative IPC: 0.32853 (Simulation time: 0 hr 3 min 14 sec) 
Heartbeat CPU  0 instructions:  146000003 cycles:  205983733 heartbeat IPC: 0.37929 cumulative IPC: 0.32949 (Simulation time: 0 hr 3 min 16 sec) 
Heartbeat CPU  0 instructions:  147000002 cycles:  210163450 heartbeat IPC: 0.23925 cumulative IPC: 0.32687 (Simulation time: 0 hr 3 min 18 sec) 
Heartbeat CPU  0 instructions:  148000000 cycles:  214319664 heartbeat IPC: 0.24060 cumulative IPC: 0.32444 (Simulation time: 0 hr 3 min 21 sec) 
Heartbeat CPU  0 instructions:  149000000 cycles:  216096612 heartbeat IPC: 0.56276 cumulative IPC: 0.32727 (Simulation time: 0 hr 3 min 22 sec) 
Heartbeat CPU  0 instructions:  150000002 cycles:  217607006 heartbeat IPC: 0.66208 cumulative IPC: 0.33061 (Simulation time: 0 hr 3 min 23 sec) 
Heartbeat CPU  0 instructions:  151000000 cycles:  221025654 heartbeat IPC: 0.29251 cumulative IPC: 0.32977 (Simulation time: 0 hr 3 min 25 sec) 
Heartbeat CPU  0 instructions:  152000000 cycles:  223540926 heartbeat IPC: 0.39757 cumulative IPC: 0.33086 (Simulation time: 0 hr 3 min 27 sec) 
Heartbeat CPU  0 instructions:  153000000 cycles:  226741191 heartbeat IPC: 0.31247 cumulative IPC: 0.33049 (Simulation time: 0 hr 3 min 29 sec) 
Heartbeat CPU  0 instructions:  154000002 cycles:  230247362 heartbeat IPC: 0.28521 cumulative IPC: 0.32952 (Simulation time: 0 hr 3 min 31 sec) 
Heartbeat CPU  0 instructions:  155000002 cycles:  232079464 heartbeat IPC: 0.54582 cumulative IPC: 0.33191 (Simulation time: 0 hr 3 min 32 sec) 
Heartbeat CPU  0 instructions:  156000000 cycles:  237081707 heartbeat IPC: 0.19991 cumulative IPC: 0.32805 (Simulation time: 0 hr 3 min 35 sec) 
Heartbeat CPU  0 instructions:  157000000 cycles:  240568247 heartbeat IPC: 0.28682 cumulative IPC: 0.32722 (Simulation time: 0 hr 3 min 37 sec) 
Heartbeat CPU  0 instructions:  158000003 cycles:  242321967 heartbeat IPC: 0.57022 cumulative IPC: 0.32964 (Simulation time: 0 hr 3 min 38 sec) 
Heartbeat CPU  0 instructions:  159000000 cycles:  243769494 heartbeat IPC: 0.69083 cumulative IPC: 0.33259 (Simulation time: 0 hr 3 min 39 sec) 
Heartbeat CPU  0 instructions:  160000000 cycles:  248070825 heartbeat IPC: 0.23249 cumulative IPC: 0.33022 (Simulation time: 0 hr 3 min 41 sec) 
Heartbeat CPU  0 instructions:  161000003 cycles:  250392497 heartbeat IPC: 0.43073 cumulative IPC: 0.33149 (Simulation time: 0 hr 3 min 43 sec) 
Heartbeat CPU  0 instructions:  162000001 cycles:  253439276 heartbeat IPC: 0.32821 cumulative IPC: 0.33143 (Simulation time: 0 hr 3 min 46 sec) 
Heartbeat CPU  0 instructions:  163000000 cycles:  256840507 heartbeat IPC: 0.29401 cumulative IPC: 0.33077 (Simulation time: 0 hr 3 min 47 sec) 
Heartbeat CPU  0 instructions:  164000000 cycles:  259292680 heartbeat IPC: 0.40780 cumulative IPC: 0.33175 (Simulation time: 0 hr 3 min 49 sec) 
Heartbeat CPU  0 instructions:  165000001 cycles:  264903722 heartbeat IPC: 0.17822 cumulative IPC: 0.32741 (Simulation time: 0 hr 3 min 53 sec) 
Heartbeat CPU  0 instructions:  166000000 cycles:  266935535 heartbeat IPC: 0.49217 cumulative IPC: 0.32908 (Simulation time: 0 hr 3 min 54 sec) 
Heartbeat CPU  0 instructions:  167000001 cycles:  268611036 heartbeat IPC: 0.59684 cumulative IPC: 0.33129 (Simulation time: 0 hr 3 min 55 sec) 
Heartbeat CPU  0 instructions:  168000000 cycles:  270713048 heartbeat IPC: 0.47573 cumulative IPC: 0.33278 (Simulation time: 0 hr 3 min 56 sec) 
Heartbeat CPU  0 instructions:  169000001 cycles:  274323434 heartbeat IPC: 0.27698 cumulative IPC: 0.33181 (Simulation time: 0 hr 3 min 58 sec) 
Heartbeat CPU  0 instructions:  170000002 cycles:  277540565 heartbeat IPC: 0.31084 cumulative IPC: 0.33149 (Simulation time: 0 hr 4 min 0 sec) 
Heartbeat CPU  0 instructions:  171000000 cycles:  279824347 heartbeat IPC: 0.43787 cumulative IPC: 0.33263 (Simulation time: 0 hr 4 min 2 sec) 
Heartbeat CPU  0 instructions:  172000000 cycles:  283213638 heartbeat IPC: 0.29505 cumulative IPC: 0.33204 (Simulation time: 0 hr 4 min 4 sec) 
Heartbeat CPU  0 instructions:  173000000 cycles:  286269759 heartbeat IPC: 0.32721 cumulative IPC: 0.33197 (Simulation time: 0 hr 4 min 7 sec) 
Heartbeat CPU  0 instructions:  174000000 cycles:  291396371 heartbeat IPC: 0.19506 cumulative IPC: 0.32886 (Simulation time: 0 hr 4 min 10 sec) 
Heartbeat CPU  0 instructions:  175000000 cycles:  293181494 heartbeat IPC: 0.56019 cumulative IPC: 0.33068 (Simulation time: 0 hr 4 min 11 sec) 
Heartbeat CPU  0 instructions:  176000000 cycles:  294776301 heartbeat IPC: 0.62704 cumulative IPC: 0.33275 (Simulation time: 0 hr 4 min 12 sec) 
Heartbeat CPU  0 instructions:  177000002 cycles:  297477870 heartbeat IPC: 0.37016 cumulative IPC: 0.33318 (Simulation time: 0 hr 4 min 13 sec) 
Heartbeat CPU  0 instructions:  178000001 cycles:  300423140 heartbeat IPC: 0.33953 cumulative IPC: 0.33326 (Simulation time: 0 hr 4 min 15 sec) 
Heartbeat CPU  0 instructions:  179000002 cycles:  304056002 heartbeat IPC: 0.27527 cumulative IPC: 0.33238 (Simulation time: 0 hr 4 min 17 sec) 
Heartbeat CPU  0 instructions:  180000000 cycles:  307340222 heartbeat IPC: 0.30449 cumulative IPC: 0.33200 (Simulation time: 0 hr 4 min 19 sec) 
Heartbeat CPU  0 instructions:  181000003 cycles:  309374735 heartbeat IPC: 0.49152 cumulative IPC: 0.33333 (Simulation time: 0 hr 4 min 21 sec) 
Heartbeat CPU  0 instructions:  182000000 cycles:  314199885 heartbeat IPC: 0.20725 cumulative IPC: 0.33088 (Simulation time: 0 hr 4 min 24 sec) 
Heartbeat CPU  0 instructions:  183000000 cycles:  317838905 heartbeat IPC: 0.27480 cumulative IPC: 0.33007 (Simulation time: 0 hr 4 min 26 sec) 
Heartbeat CPU  0 instructions:  184000000 cycles:  319597322 heartbeat IPC: 0.56869 cumulative IPC: 0.33172 (Simulation time: 0 hr 4 min 27 sec) 
Heartbeat CPU  0 instructions:  185000002 cycles:  321036188 heartbeat IPC: 0.69499 cumulative IPC: 0.33378 (Simulation time: 0 hr 4 min 28 sec) 
Heartbeat CPU  0 instructions:  186000001 cycles:  325170162 heartbeat IPC: 0.24190 cumulative IPC: 0.33231 (Simulation time: 0 hr 4 min 30 sec) 
Heartbeat CPU  0 instructions:  187000000 cycles:  327576345 heartbeat IPC: 0.41560 cumulative IPC: 0.33307 (Simulation time: 0 hr 4 min 32 sec) 
Heartbeat CPU  0 instructions:  188000000 cycles:  330383292 heartbeat IPC: 0.35626 cumulative IPC: 0.33332 (Simulation time: 0 hr 4 min 34 sec) 
Heartbeat CPU  0 instructions:  189000000 cycles:  333872647 heartbeat IPC: 0.28659 cumulative IPC: 0.33271 (Simulation time: 0 hr 4 min 36 sec) 
Heartbeat CPU  0 instructions:  190000001 cycles:  335931379 heartbeat IPC: 0.48574 cumulative IPC: 0.33388 (Simulation time: 0 hr 4 min 38 sec) 
Heartbeat CPU  0 instructions:  191000001 cycles:  341384411 heartbeat IPC: 0.18338 cumulative IPC: 0.33090 (Simulation time: 0 hr 4 min 41 sec) 
Heartbeat CPU  0 instructions:  192000000 cycles:  344074916 heartbeat IPC: 0.37168 cumulative IPC: 0.33129 (Simulation time: 0 hr 4 min 43 sec) 
Heartbeat CPU  0 instructions:  193000003 cycles:  345792534 heartbeat IPC: 0.58220 cumulative IPC: 0.33283 (Simulation time: 0 hr 4 min 44 sec) 
Heartbeat CPU  0 instructions:  194000001 cycles:  347513838 heartbeat IPC: 0.58095 cumulative IPC: 0.33435 (Simulation time: 0 hr 4 min 45 sec) 
Heartbeat CPU  0 instructions:  195000001 cycles:  351539234 heartbeat IPC: 0.24842 cumulative IPC: 0.33314 (Simulation time: 0 hr 4 min 47 sec) 
Heartbeat CPU  0 instructions:  196000000 cycles:  354304606 heartbeat IPC: 0.36161 cumulative IPC: 0.33341 (Simulation time: 0 hr 4 min 49 sec) 
Heartbeat CPU  0 instructions:  197000000 cycles:  356857311 heartbeat IPC: 0.39174 cumulative IPC: 0.33393 (Simulation time: 0 hr 4 min 51 sec) 
Heartbeat CPU  0 instructions:  198000000 cycles:  360241355 heartbeat IPC: 0.29550 cumulative IPC: 0.33348 (Simulation time: 0 hr 4 min 53 sec) 
Heartbeat CPU  0 instructions:  199000001 cycles:  362860097 heartbeat IPC: 0.38186 cumulative IPC: 0.33391 (Simulation time: 0 hr 4 min 55 sec) 
Heartbeat CPU  0 instructions:  200000000 cycles:  368513892 heartbeat IPC: 0.17687 cumulative IPC: 0.33097 (Simulation time: 0 hr 4 min 58 sec) 
Finished CPU 0 instructions: 100000000 cycles: 302140218 cumulative IPC: 0.33097 (Simulation time: 0 hr 4 min 58 sec) 

ChampSim completed all CPUs

[ROI Statistics]
Core_0_instructions 100000000
Core_0_cycles 302140218
Core_0_IPC 0.33097

Core_0_branch_prediction_accuracy 95.09858
Core_0_branch_MPKI 8.66907
Core_0_average_ROB_occupancy_at_mispredict 82.89176

Core_0_L1D_total_access 34772286
Core_0_L1D_total_hit 27521815
Core_0_L1D_total_miss 7250471
Core_0_L1D_loads 15456949
Core_0_L1D_load_hit 12091167
Core_0_L1D_load_miss 3365782
Core_0_L1D_RFOs 5459760
Core_0_L1D_RFO_hit 4623796
Core_0_L1D_RFO_miss 835964
Core_0_L1D_prefetches 13855577
Core_0_L1D_prefetch_hit 10806852
Core_0_L1D_prefetch_miss 3048725
Core_0_L1D_writebacks 0
Core_0_L1D_writeback_hit 0
Core_0_L1D_writeback_miss 0
Core_0_L1D_prefetch_requested 43542855
Core_0_L1D_prefetch_issued 43029554
Core_0_L1D_prefetch_useful 3035698
Core_0_L1D_prefetch_useless 3673900
Core_0_L1D_prefetch_late 598272
Core_0_L1D_average_miss_latency 15690684.82800

Core_0_L1I_total_access 20939635
Core_0_L1I_total_hit 20939003
Core_0_L1I_total_miss 632
Core_0_L1I_loads 20939635
Core_0_L1I_load_hit 20939003
Core_0_L1I_load_miss 632
Core_0_L1I_RFOs 0
Core_0_L1I_RFO_hit 0
Core_0_L1I_RFO_miss 0
Core_0_L1I_prefetches 0
Core_0_L1I_prefetch_hit 0
Core_0_L1I_prefetch_miss 0
Core_0_L1I_writebacks 0
Core_0_L1I_writeback_hit 0
Core_0_L1I_writeback_miss 0
Core_0_L1I_prefetch_requested 0
Core_0_L1I_prefetch_issued 0
Core_0_L1I_prefetch_useful 0
Core_0_L1I_prefetch_useless 0
Core_0_L1I_prefetch_late 0
Core_0_L1I_average_miss_latency 227.12184

Core_0_L2C_total_access 9724259
Core_0_L2C_total_hit 4950898
Core_0_L2C_total_miss 4773361
Core_0_L2C_loads 2883945
Core_0_L2C_load_hit 1220906
Core_0_L2C_load_miss 1663039
Core_0_L2C_RFOs 835773
Core_0_L2C_RFO_hit 149493
Core_0_L2C_RFO_miss 686280
Core_0_L2C_prefetches 3529997
Core_0_L2C_prefetch_hit 1106099
Core_0_L2C_prefetch_miss 2423898
Core_0_L2C_writebacks 2474544
Core_0_L2C_writeback_hit 2474400
Core_0_L2C_writeback_miss 144
Core_0_L2C_prefetch_requested 0
Core_0_L2C_prefetch_issued 0
Core_0_L2C_prefetch_useful 578504
Core_0_L2C_prefetch_useless 4562940
Core_0_L2C_prefetch_late 0
Core_0_L2C_average_miss_latency 192.27309

Core_0_LLC_total_access 8542706
Core_0_LLC_total_hit 4679526
Core_0_LLC_total_miss 3863180
Core_0_LLC_loads 1662980
Core_0_LLC_load_hit 709310
Core_0_LLC_load_miss 953670
Core_0_LLC_RFOs 686276
Core_0_LLC_RFO_hit 113566
Core_0_LLC_RFO_miss 572710
Core_0_LLC_prefetches 4571523
Core_0_LLC_prefetch_hit 2279361
Core_0_LLC_prefetch_miss 2292162
Core_0_LLC_writebacks 1621927
Core_0_LLC_writeback_hit 1577289
Core_0_LLC_writeback_miss 44638
Core_0_LLC_prefetch_requested 7399887
Core_0_LLC_prefetch_issued 7283997
Core_0_LLC_prefetch_useful 860738
Core_0_LLC_prefetch_useless 4046299
Core_0_LLC_prefetch_late 39603
Core_0_LLC_average_miss_latency 279.13154

Core_0_major_page_fault 0
Core_0_minor_page_fault 12935

CPU 0 L1D next line prefetcher final stats
LLC Next Line Prefetcher Final Stats: none
Channel_0_RQ_row_buffer_hit 900458
Channel_0_RQ_row_buffer_miss 2917167
Channel_0_WQ_row_buffer_hit 383751
Channel_0_WQ_row_buffer_miss 848766
Channel_0_WQ_full 0
Channel_0_dbus_congested 2717089

avg_congested_cycle 10
