*************************************************
   ChampSim Multicore Out-of-Order Simulator
   Last compiled: Dec 24 2023 16:26:15
*************************************************

trace_0 ./test_trace/450.soplex-247B.champsimtrace.xz
CPU 0 L1D next line prefetcher
LLC Next Line Prefetcher
warmup_instructions 100000000
simulation_instructions 100000000
champsim_seed 223

num_cpus 1
cpu_freq 4000
dram_io_freq 2400
page_size 4096
block_size 64
max_read_per_cycle 8
max_fill_per_cycle 1
dram_channels 1
dram_ranks 1
dram_banks 8
dram_rows 65536
dram_columns 128
dram_row_size 8
dram_size 4096
dram_pages 1048576

fetch_width 6
decode_width 6
exec_width 4
lq_width 2
sq_width 2
retire_width 4
scheduler_size 128
branch_mispredict_penalty 20
rob_size 256
lq_size 72
sq_size 56
num_instr_destinations_sparc 4
num_instr_destinations 2
num_instr_sources 4

itlb_set 16
itlb_way 8
itlb_rq_size 16
itlb_wq_size 16
itlb_pq_size 0
itlb_mshr_size 8
itlb_latency 1

dtlb_set 16
dtlb_way 4
dtlb_rq_size 16
dtlb_wq_size 16
dtlb_pq_size 0
dtlb_mshr_size 8
dtlb_latency 1

stlb_set 128
stlb_way 12
stlb_rq_size 32
stlb_wq_size 32
stlb_pq_size 0
stlb_mshr_size 16
stlb_latency 8

l1i_size 32
l1i_set 64
l1i_way 8
l1i_rq_size 64
l1i_wq_size 64
l1i_pq_size 8
l1i_mshr_size 8
l1i_latency 1

l1d_size 32
l1d_set 64
l1d_way 8
l1d_rq_size 64
l1d_wq_size 64
l1d_pq_size 8
l1d_mshr_size 16
l1d_latency 4

l2c_size 512
l2c_set 1024
l2c_way 8
l2c_rq_size 32
l2c_wq_size 32
l2c_pq_size 16
l2c_mshr_size 32
l2c_latency 10

llc_size 2048
llc_set 2048
llc_way 16
llc_rq_size 32
llc_wq_size 32
llc_pq_size 32
llc_mshr_size 64
llc_latency 20

dram_channel_width 8
dram_wq_size 64
dram_rq_size 64
tRP 15
tRCD 15
tCAS 12.5
dram_dbus_turn_around_time 30
dram_write_high_wm 56
dram_write_low_wm 48
min_dram_writes_per_switch 16
dram_mtps 2400
dram_dbus_return_time 13


Heartbeat CPU  0 instructions:    1000002 cycles:     753290 heartbeat IPC: 1.32751 cumulative IPC: 1.32751 (Simulation time: 0 hr 0 min 1 sec) 
Heartbeat CPU  0 instructions:    2000001 cycles:    1391922 heartbeat IPC: 1.56585 cumulative IPC: 1.43686 (Simulation time: 0 hr 0 min 2 sec) 
Heartbeat CPU  0 instructions:    3000001 cycles:    2116465 heartbeat IPC: 1.38018 cumulative IPC: 1.41746 (Simulation time: 0 hr 0 min 4 sec) 
Heartbeat CPU  0 instructions:    4000000 cycles:    2657469 heartbeat IPC: 1.84841 cumulative IPC: 1.50519 (Simulation time: 0 hr 0 min 5 sec) 
Heartbeat CPU  0 instructions:    5000000 cycles:    3562801 heartbeat IPC: 1.10457 cumulative IPC: 1.40339 (Simulation time: 0 hr 0 min 6 sec) 
Heartbeat CPU  0 instructions:    6000001 cycles:    4451197 heartbeat IPC: 1.12563 cumulative IPC: 1.34795 (Simulation time: 0 hr 0 min 7 sec) 
Heartbeat CPU  0 instructions:    7000000 cycles:    5248567 heartbeat IPC: 1.25412 cumulative IPC: 1.33370 (Simulation time: 0 hr 0 min 9 sec) 
Heartbeat CPU  0 instructions:    8000000 cycles:    5938857 heartbeat IPC: 1.44867 cumulative IPC: 1.34706 (Simulation time: 0 hr 0 min 10 sec) 
Heartbeat CPU  0 instructions:    9000001 cycles:    6556168 heartbeat IPC: 1.61993 cumulative IPC: 1.37275 (Simulation time: 0 hr 0 min 11 sec) 
Heartbeat CPU  0 instructions:   10000000 cycles:    7102664 heartbeat IPC: 1.82984 cumulative IPC: 1.40792 (Simulation time: 0 hr 0 min 12 sec) 
Heartbeat CPU  0 instructions:   11000003 cycles:    7690094 heartbeat IPC: 1.70234 cumulative IPC: 1.43041 (Simulation time: 0 hr 0 min 13 sec) 
Heartbeat CPU  0 instructions:   12000000 cycles:    8360064 heartbeat IPC: 1.49260 cumulative IPC: 1.43540 (Simulation time: 0 hr 0 min 14 sec) 
Heartbeat CPU  0 instructions:   13000000 cycles:    9237784 heartbeat IPC: 1.13932 cumulative IPC: 1.40726 (Simulation time: 0 hr 0 min 15 sec) 
Heartbeat CPU  0 instructions:   14000002 cycles:    9983646 heartbeat IPC: 1.34073 cumulative IPC: 1.40229 (Simulation time: 0 hr 0 min 16 sec) 
Heartbeat CPU  0 instructions:   15000002 cycles:   10572955 heartbeat IPC: 1.69690 cumulative IPC: 1.41871 (Simulation time: 0 hr 0 min 17 sec) 
Heartbeat CPU  0 instructions:   16000000 cycles:   11094898 heartbeat IPC: 1.91591 cumulative IPC: 1.44210 (Simulation time: 0 hr 0 min 18 sec) 
Heartbeat CPU  0 instructions:   17000000 cycles:   11902220 heartbeat IPC: 1.23866 cumulative IPC: 1.42831 (Simulation time: 0 hr 0 min 19 sec) 
Heartbeat CPU  0 instructions:   18000001 cycles:   12491623 heartbeat IPC: 1.69663 cumulative IPC: 1.44097 (Simulation time: 0 hr 0 min 21 sec) 
Heartbeat CPU  0 instructions:   19000001 cycles:   13032052 heartbeat IPC: 1.85038 cumulative IPC: 1.45794 (Simulation time: 0 hr 0 min 22 sec) 
Heartbeat CPU  0 instructions:   20000000 cycles:   13624009 heartbeat IPC: 1.68931 cumulative IPC: 1.46800 (Simulation time: 0 hr 0 min 23 sec) 
Heartbeat CPU  0 instructions:   21000001 cycles:   14275198 heartbeat IPC: 1.53565 cumulative IPC: 1.47108 (Simulation time: 0 hr 0 min 24 sec) 
Heartbeat CPU  0 instructions:   22000003 cycles:   15150949 heartbeat IPC: 1.14188 cumulative IPC: 1.45205 (Simulation time: 0 hr 0 min 25 sec) 
Heartbeat CPU  0 instructions:   23000001 cycles:   15915293 heartbeat IPC: 1.30831 cumulative IPC: 1.44515 (Simulation time: 0 hr 0 min 26 sec) 
Heartbeat CPU  0 instructions:   24000000 cycles:   16502642 heartbeat IPC: 1.70256 cumulative IPC: 1.45431 (Simulation time: 0 hr 0 min 26 sec) 
Heartbeat CPU  0 instructions:   25000000 cycles:   17037940 heartbeat IPC: 1.86812 cumulative IPC: 1.46731 (Simulation time: 0 hr 0 min 27 sec) 
Heartbeat CPU  0 instructions:   26000001 cycles:   17835215 heartbeat IPC: 1.25427 cumulative IPC: 1.45779 (Simulation time: 0 hr 0 min 29 sec) 
Heartbeat CPU  0 instructions:   27000003 cycles:   18390392 heartbeat IPC: 1.80123 cumulative IPC: 1.46816 (Simulation time: 0 hr 0 min 30 sec) 
Heartbeat CPU  0 instructions:   28000000 cycles:   18948647 heartbeat IPC: 1.79129 cumulative IPC: 1.47768 (Simulation time: 0 hr 0 min 31 sec) 
Heartbeat CPU  0 instructions:   29000002 cycles:   19502645 heartbeat IPC: 1.80506 cumulative IPC: 1.48698 (Simulation time: 0 hr 0 min 32 sec) 
Heartbeat CPU  0 instructions:   30000001 cycles:   20081473 heartbeat IPC: 1.72763 cumulative IPC: 1.49391 (Simulation time: 0 hr 0 min 33 sec) 
Heartbeat CPU  0 instructions:   31000002 cycles:   20946626 heartbeat IPC: 1.15587 cumulative IPC: 1.47995 (Simulation time: 0 hr 0 min 34 sec) 
Heartbeat CPU  0 instructions:   32000000 cycles:   21764682 heartbeat IPC: 1.22241 cumulative IPC: 1.47027 (Simulation time: 0 hr 0 min 35 sec) 
Heartbeat CPU  0 instructions:   33000000 cycles:   22357191 heartbeat IPC: 1.68774 cumulative IPC: 1.47604 (Simulation time: 0 hr 0 min 36 sec) 
Heartbeat CPU  0 instructions:   34000000 cycles:   22961749 heartbeat IPC: 1.65410 cumulative IPC: 1.48072 (Simulation time: 0 hr 0 min 37 sec) 
Heartbeat CPU  0 instructions:   35000000 cycles:   23685490 heartbeat IPC: 1.38171 cumulative IPC: 1.47770 (Simulation time: 0 hr 0 min 38 sec) 
Heartbeat CPU  0 instructions:   36000000 cycles:   24269873 heartbeat IPC: 1.71121 cumulative IPC: 1.48332 (Simulation time: 0 hr 0 min 39 sec) 
Heartbeat CPU  0 instructions:   37000002 cycles:   24811912 heartbeat IPC: 1.84489 cumulative IPC: 1.49122 (Simulation time: 0 hr 0 min 41 sec) 
Heartbeat CPU  0 instructions:   38000002 cycles:   25377914 heartbeat IPC: 1.76678 cumulative IPC: 1.49737 (Simulation time: 0 hr 0 min 42 sec) 
Heartbeat CPU  0 instructions:   39000000 cycles:   25951236 heartbeat IPC: 1.74422 cumulative IPC: 1.50282 (Simulation time: 0 hr 0 min 43 sec) 
Heartbeat CPU  0 instructions:   40000000 cycles:   26721065 heartbeat IPC: 1.29899 cumulative IPC: 1.49695 (Simulation time: 0 hr 0 min 44 sec) 
Heartbeat CPU  0 instructions:   41000001 cycles:   27583856 heartbeat IPC: 1.15903 cumulative IPC: 1.48638 (Simulation time: 0 hr 0 min 45 sec) 
Heartbeat CPU  0 instructions:   42000001 cycles:   28232861 heartbeat IPC: 1.54082 cumulative IPC: 1.48763 (Simulation time: 0 hr 0 min 45 sec) 
Heartbeat CPU  0 instructions:   43000000 cycles:   28854811 heartbeat IPC: 1.60784 cumulative IPC: 1.49022 (Simulation time: 0 hr 0 min 46 sec) 
Heartbeat CPU  0 instructions:   44000000 cycles:   29479218 heartbeat IPC: 1.60152 cumulative IPC: 1.49258 (Simulation time: 0 hr 0 min 47 sec) 
Heartbeat CPU  0 instructions:   45000000 cycles:   30192754 heartbeat IPC: 1.40147 cumulative IPC: 1.49042 (Simulation time: 0 hr 0 min 49 sec) 
Heartbeat CPU  0 instructions:   46000001 cycles:   30730069 heartbeat IPC: 1.86111 cumulative IPC: 1.49691 (Simulation time: 0 hr 0 min 50 sec) 
Heartbeat CPU  0 instructions:   47000000 cycles:   31289749 heartbeat IPC: 1.78673 cumulative IPC: 1.50209 (Simulation time: 0 hr 0 min 51 sec) 
Heartbeat CPU  0 instructions:   48000000 cycles:   31869270 heartbeat IPC: 1.72556 cumulative IPC: 1.50615 (Simulation time: 0 hr 0 min 52 sec) 
Heartbeat CPU  0 instructions:   49000001 cycles:   32603435 heartbeat IPC: 1.36209 cumulative IPC: 1.50291 (Simulation time: 0 hr 0 min 53 sec) 
Heartbeat CPU  0 instructions:   50000001 cycles:   33468622 heartbeat IPC: 1.15582 cumulative IPC: 1.49394 (Simulation time: 0 hr 0 min 54 sec) 
Heartbeat CPU  0 instructions:   51000003 cycles:   34160634 heartbeat IPC: 1.44506 cumulative IPC: 1.49295 (Simulation time: 0 hr 0 min 55 sec) 
Heartbeat CPU  0 instructions:   52000000 cycles:   34751085 heartbeat IPC: 1.69362 cumulative IPC: 1.49636 (Simulation time: 0 hr 0 min 56 sec) 
Heartbeat CPU  0 instructions:   53000000 cycles:   35327325 heartbeat IPC: 1.73539 cumulative IPC: 1.50026 (Simulation time: 0 hr 0 min 57 sec) 
Heartbeat CPU  0 instructions:   54000002 cycles:   36081326 heartbeat IPC: 1.32626 cumulative IPC: 1.49662 (Simulation time: 0 hr 0 min 58 sec) 
Heartbeat CPU  0 instructions:   55000001 cycles:   36648110 heartbeat IPC: 1.76434 cumulative IPC: 1.50076 (Simulation time: 0 hr 1 min 0 sec) 
Heartbeat CPU  0 instructions:   56000000 cycles:   37201309 heartbeat IPC: 1.80767 cumulative IPC: 1.50532 (Simulation time: 0 hr 1 min 1 sec) 
Heartbeat CPU  0 instructions:   57000002 cycles:   37782887 heartbeat IPC: 1.71946 cumulative IPC: 1.50862 (Simulation time: 0 hr 1 min 2 sec) 
Heartbeat CPU  0 instructions:   58000001 cycles:   38509957 heartbeat IPC: 1.37538 cumulative IPC: 1.50610 (Simulation time: 0 hr 1 min 3 sec) 
Heartbeat CPU  0 instructions:   59000001 cycles:   39377295 heartbeat IPC: 1.15295 cumulative IPC: 1.49833 (Simulation time: 0 hr 1 min 4 sec) 
Heartbeat CPU  0 instructions:   60000000 cycles:   40094473 heartbeat IPC: 1.39435 cumulative IPC: 1.49647 (Simulation time: 0 hr 1 min 5 sec) 
Heartbeat CPU  0 instructions:   61000003 cycles:   40693908 heartbeat IPC: 1.66824 cumulative IPC: 1.49900 (Simulation time: 0 hr 1 min 5 sec) 
Heartbeat CPU  0 instructions:   62000001 cycles:   41258751 heartbeat IPC: 1.77040 cumulative IPC: 1.50271 (Simulation time: 0 hr 1 min 7 sec) 
Heartbeat CPU  0 instructions:   63000000 cycles:   42043201 heartbeat IPC: 1.27478 cumulative IPC: 1.49846 (Simulation time: 0 hr 1 min 8 sec) 
Heartbeat CPU  0 instructions:   64000000 cycles:   42621009 heartbeat IPC: 1.73068 cumulative IPC: 1.50161 (Simulation time: 0 hr 1 min 9 sec) 
Heartbeat CPU  0 instructions:   65000003 cycles:   43172420 heartbeat IPC: 1.81353 cumulative IPC: 1.50559 (Simulation time: 0 hr 1 min 10 sec) 
Heartbeat CPU  0 instructions:   66000003 cycles:   43755561 heartbeat IPC: 1.71485 cumulative IPC: 1.50838 (Simulation time: 0 hr 1 min 11 sec) 
Heartbeat CPU  0 instructions:   67000000 cycles:   44436781 heartbeat IPC: 1.46795 cumulative IPC: 1.50776 (Simulation time: 0 hr 1 min 12 sec) 
Heartbeat CPU  0 instructions:   68000000 cycles:   45309581 heartbeat IPC: 1.14574 cumulative IPC: 1.50079 (Simulation time: 0 hr 1 min 13 sec) 
Heartbeat CPU  0 instructions:   69000001 cycles:   46058830 heartbeat IPC: 1.33467 cumulative IPC: 1.49808 (Simulation time: 0 hr 1 min 14 sec) 
Heartbeat CPU  0 instructions:   70000000 cycles:   46660179 heartbeat IPC: 1.66293 cumulative IPC: 1.50021 (Simulation time: 0 hr 1 min 15 sec) 
Heartbeat CPU  0 instructions:   71000002 cycles:   47186286 heartbeat IPC: 1.90076 cumulative IPC: 1.50467 (Simulation time: 0 hr 1 min 16 sec) 
Heartbeat CPU  0 instructions:   72000000 cycles:   47988846 heartbeat IPC: 1.24601 cumulative IPC: 1.50035 (Simulation time: 0 hr 1 min 17 sec) 
Heartbeat CPU  0 instructions:   73000001 cycles:   48567595 heartbeat IPC: 1.72787 cumulative IPC: 1.50306 (Simulation time: 0 hr 1 min 19 sec) 
Heartbeat CPU  0 instructions:   74000002 cycles:   49113281 heartbeat IPC: 1.83256 cumulative IPC: 1.50672 (Simulation time: 0 hr 1 min 20 sec) 
Heartbeat CPU  0 instructions:   75000003 cycles:   49705959 heartbeat IPC: 1.68726 cumulative IPC: 1.50887 (Simulation time: 0 hr 1 min 21 sec) 
Heartbeat CPU  0 instructions:   76000000 cycles:   50352137 heartbeat IPC: 1.54756 cumulative IPC: 1.50937 (Simulation time: 0 hr 1 min 22 sec) 
Heartbeat CPU  0 instructions:   77000001 cycles:   51222199 heartbeat IPC: 1.14934 cumulative IPC: 1.50325 (Simulation time: 0 hr 1 min 23 sec) 
Heartbeat CPU  0 instructions:   78000001 cycles:   51993383 heartbeat IPC: 1.29671 cumulative IPC: 1.50019 (Simulation time: 0 hr 1 min 24 sec) 
Heartbeat CPU  0 instructions:   79000003 cycles:   52596061 heartbeat IPC: 1.65926 cumulative IPC: 1.50201 (Simulation time: 0 hr 1 min 25 sec) 
Heartbeat CPU  0 instructions:   80000000 cycles:   53152477 heartbeat IPC: 1.79721 cumulative IPC: 1.50510 (Simulation time: 0 hr 1 min 26 sec) 
Heartbeat CPU  0 instructions:   81000001 cycles:   53939333 heartbeat IPC: 1.27088 cumulative IPC: 1.50169 (Simulation time: 0 hr 1 min 27 sec) 
Heartbeat CPU  0 instructions:   82000002 cycles:   54530761 heartbeat IPC: 1.69082 cumulative IPC: 1.50374 (Simulation time: 0 hr 1 min 29 sec) 
Heartbeat CPU  0 instructions:   83000003 cycles:   55093252 heartbeat IPC: 1.77781 cumulative IPC: 1.50654 (Simulation time: 0 hr 1 min 30 sec) 
Heartbeat CPU  0 instructions:   84000000 cycles:   55645315 heartbeat IPC: 1.81138 cumulative IPC: 1.50956 (Simulation time: 0 hr 1 min 31 sec) 
Heartbeat CPU  0 instructions:   85000001 cycles:   56223787 heartbeat IPC: 1.72869 cumulative IPC: 1.51182 (Simulation time: 0 hr 1 min 32 sec) 
Heartbeat CPU  0 instructions:   86000000 cycles:   57092388 heartbeat IPC: 1.15128 cumulative IPC: 1.50633 (Simulation time: 0 hr 1 min 33 sec) 
Heartbeat CPU  0 instructions:   87000000 cycles:   57916493 heartbeat IPC: 1.21344 cumulative IPC: 1.50216 (Simulation time: 0 hr 1 min 34 sec) 
Heartbeat CPU  0 instructions:   88000000 cycles:   58529224 heartbeat IPC: 1.63204 cumulative IPC: 1.50352 (Simulation time: 0 hr 1 min 35 sec) 
Heartbeat CPU  0 instructions:   89000003 cycles:   59154559 heartbeat IPC: 1.59915 cumulative IPC: 1.50453 (Simulation time: 0 hr 1 min 36 sec) 
Heartbeat CPU  0 instructions:   90000003 cycles:   59848153 heartbeat IPC: 1.44177 cumulative IPC: 1.50381 (Simulation time: 0 hr 1 min 37 sec) 
Heartbeat CPU  0 instructions:   91000001 cycles:   60500813 heartbeat IPC: 1.53219 cumulative IPC: 1.50411 (Simulation time: 0 hr 1 min 39 sec) 
Heartbeat CPU  0 instructions:   92000000 cycles:   61075160 heartbeat IPC: 1.74111 cumulative IPC: 1.50634 (Simulation time: 0 hr 1 min 40 sec) 
Heartbeat CPU  0 instructions:   93000003 cycles:   61619547 heartbeat IPC: 1.83693 cumulative IPC: 1.50926 (Simulation time: 0 hr 1 min 41 sec) 
Heartbeat CPU  0 instructions:   94000003 cycles:   62199446 heartbeat IPC: 1.72444 cumulative IPC: 1.51127 (Simulation time: 0 hr 1 min 42 sec) 
Heartbeat CPU  0 instructions:   95000003 cycles:   63031440 heartbeat IPC: 1.20193 cumulative IPC: 1.50718 (Simulation time: 0 hr 1 min 43 sec) 
Heartbeat CPU  0 instructions:   96000000 cycles:   63876214 heartbeat IPC: 1.18375 cumulative IPC: 1.50291 (Simulation time: 0 hr 1 min 44 sec) 
Heartbeat CPU  0 instructions:   97000002 cycles:   64507161 heartbeat IPC: 1.58492 cumulative IPC: 1.50371 (Simulation time: 0 hr 1 min 45 sec) 
Heartbeat CPU  0 instructions:   98000003 cycles:   65136714 heartbeat IPC: 1.58843 cumulative IPC: 1.50453 (Simulation time: 0 hr 1 min 46 sec) 
Heartbeat CPU  0 instructions:   99000002 cycles:   65788404 heartbeat IPC: 1.53447 cumulative IPC: 1.50482 (Simulation time: 0 hr 1 min 47 sec) 
Heartbeat CPU  0 instructions:  100000000 cycles:   66372861 heartbeat IPC: 1.71099 cumulative IPC: 1.50664 (Simulation time: 0 hr 1 min 48 sec) 

Warmup complete CPU  0 instructions:  100000002 cycles:   66372863 (Simulation time: 0 hr 1 min 48 sec) 

Heartbeat CPU  0 instructions:  101000001 cycles:   72716064 heartbeat IPC: 0.15765 cumulative IPC: 0.15765 (Simulation time: 0 hr 1 min 51 sec) 
Heartbeat CPU  0 instructions:  102000001 cycles:   76137152 heartbeat IPC: 0.29230 cumulative IPC: 0.20483 (Simulation time: 0 hr 1 min 53 sec) 
Heartbeat CPU  0 instructions:  103000001 cycles:   80541853 heartbeat IPC: 0.22703 cumulative IPC: 0.21173 (Simulation time: 0 hr 1 min 56 sec) 
Heartbeat CPU  0 instructions:  104000000 cycles:   84939091 heartbeat IPC: 0.22742 cumulative IPC: 0.21544 (Simulation time: 0 hr 1 min 59 sec) 
Heartbeat CPU  0 instructions:  105000003 cycles:   88226099 heartbeat IPC: 0.30423 cumulative IPC: 0.22880 (Simulation time: 0 hr 2 min 1 sec) 
Heartbeat CPU  0 instructions:  106000001 cycles:   91145931 heartbeat IPC: 0.34248 cumulative IPC: 0.24220 (Simulation time: 0 hr 2 min 4 sec) 
Heartbeat CPU  0 instructions:  107000003 cycles:   95066073 heartbeat IPC: 0.25509 cumulative IPC: 0.24396 (Simulation time: 0 hr 2 min 6 sec) 
Heartbeat CPU  0 instructions:  108000000 cycles:   98430397 heartbeat IPC: 0.29724 cumulative IPC: 0.24955 (Simulation time: 0 hr 2 min 7 sec) 
Heartbeat CPU  0 instructions:  109000000 cycles:  101805001 heartbeat IPC: 0.29633 cumulative IPC: 0.25401 (Simulation time: 0 hr 2 min 10 sec) 
Heartbeat CPU  0 instructions:  110000001 cycles:  103954293 heartbeat IPC: 0.46527 cumulative IPC: 0.26609 (Simulation time: 0 hr 2 min 11 sec) 
Heartbeat CPU  0 instructions:  111000003 cycles:  106442181 heartbeat IPC: 0.40195 cumulative IPC: 0.27452 (Simulation time: 0 hr 2 min 13 sec) 
Heartbeat CPU  0 instructions:  112000000 cycles:  108303160 heartbeat IPC: 0.53735 cumulative IPC: 0.28619 (Simulation time: 0 hr 2 min 15 sec) 
Heartbeat CPU  0 instructions:  113000000 cycles:  110174991 heartbeat IPC: 0.53424 cumulative IPC: 0.29679 (Simulation time: 0 hr 2 min 17 sec) 
Heartbeat CPU  0 instructions:  114000001 cycles:  111644237 heartbeat IPC: 0.68062 cumulative IPC: 0.30925 (Simulation time: 0 hr 2 min 18 sec) 
Heartbeat CPU  0 instructions:  115000000 cycles:  113522743 heartbeat IPC: 0.53234 cumulative IPC: 0.31813 (Simulation time: 0 hr 2 min 20 sec) 
Heartbeat CPU  0 instructions:  116000000 cycles:  117322146 heartbeat IPC: 0.26320 cumulative IPC: 0.31404 (Simulation time: 0 hr 2 min 22 sec) 
Heartbeat CPU  0 instructions:  117000000 cycles:  120032402 heartbeat IPC: 0.36897 cumulative IPC: 0.31681 (Simulation time: 0 hr 2 min 24 sec) 
Heartbeat CPU  0 instructions:  118000002 cycles:  122696622 heartbeat IPC: 0.37535 cumulative IPC: 0.31958 (Simulation time: 0 hr 2 min 26 sec) 
Heartbeat CPU  0 instructions:  119000000 cycles:  125756427 heartbeat IPC: 0.32682 cumulative IPC: 0.31995 (Simulation time: 0 hr 2 min 28 sec) 
Heartbeat CPU  0 instructions:  120000000 cycles:  128186988 heartbeat IPC: 0.41143 cumulative IPC: 0.32355 (Simulation time: 0 hr 2 min 30 sec) 
Heartbeat CPU  0 instructions:  121000001 cycles:  132646108 heartbeat IPC: 0.22426 cumulative IPC: 0.31687 (Simulation time: 0 hr 2 min 33 sec) 
Heartbeat CPU  0 instructions:  122000001 cycles:  136733335 heartbeat IPC: 0.24466 cumulative IPC: 0.31268 (Simulation time: 0 hr 2 min 35 sec) 
Heartbeat CPU  0 instructions:  123000000 cycles:  138553291 heartbeat IPC: 0.54946 cumulative IPC: 0.31865 (Simulation time: 0 hr 2 min 36 sec) 
Heartbeat CPU  0 instructions:  124000000 cycles:  140114130 heartbeat IPC: 0.64068 cumulative IPC: 0.32546 (Simulation time: 0 hr 2 min 37 sec) 
Heartbeat CPU  0 instructions:  125000000 cycles:  143816164 heartbeat IPC: 0.27012 cumulative IPC: 0.32282 (Simulation time: 0 hr 2 min 39 sec) 
Heartbeat CPU  0 instructions:  126000000 cycles:  146218328 heartbeat IPC: 0.41629 cumulative IPC: 0.32563 (Simulation time: 0 hr 2 min 41 sec) 
Heartbeat CPU  0 instructions:  127000002 cycles:  149457404 heartbeat IPC: 0.30873 cumulative IPC: 0.32497 (Simulation time: 0 hr 2 min 43 sec) 
Heartbeat CPU  0 instructions:  128000000 cycles:  152775668 heartbeat IPC: 0.30136 cumulative IPC: 0.32406 (Simulation time: 0 hr 2 min 45 sec) 
Heartbeat CPU  0 instructions:  129000001 cycles:  155198933 heartbeat IPC: 0.41267 cumulative IPC: 0.32648 (Simulation time: 0 hr 2 min 47 sec) 
Heartbeat CPU  0 instructions:  130000000 cycles:  161122019 heartbeat IPC: 0.16883 cumulative IPC: 0.31663 (Simulation time: 0 hr 2 min 51 sec) 
Heartbeat CPU  0 instructions:  131000000 cycles:  163117131 heartbeat IPC: 0.50122 cumulative IPC: 0.32043 (Simulation time: 0 hr 2 min 52 sec) 
Heartbeat CPU  0 instructions:  132000000 cycles:  164870355 heartbeat IPC: 0.57038 cumulative IPC: 0.32488 (Simulation time: 0 hr 2 min 53 sec) 
Heartbeat CPU  0 instructions:  133000000 cycles:  167164129 heartbeat IPC: 0.43596 cumulative IPC: 0.32741 (Simulation time: 0 hr 2 min 54 sec) 
Heartbeat CPU  0 instructions:  134000000 cycles:  170513281 heartbeat IPC: 0.29858 cumulative IPC: 0.32648 (Simulation time: 0 hr 2 min 56 sec) 
Heartbeat CPU  0 instructions:  135000002 cycles:  173604755 heartbeat IPC: 0.32347 cumulative IPC: 0.32640 (Simulation time: 0 hr 2 min 58 sec) 
Heartbeat CPU  0 instructions:  136000000 cycles:  175667031 heartbeat IPC: 0.48490 cumulative IPC: 0.32939 (Simulation time: 0 hr 3 min 0 sec) 
Heartbeat CPU  0 instructions:  137000000 cycles:  179173557 heartbeat IPC: 0.28518 cumulative IPC: 0.32801 (Simulation time: 0 hr 3 min 2 sec) 
Heartbeat CPU  0 instructions:  138000003 cycles:  182231014 heartbeat IPC: 0.32707 cumulative IPC: 0.32799 (Simulation time: 0 hr 3 min 4 sec) 
Heartbeat CPU  0 instructions:  139000000 cycles:  187476986 heartbeat IPC: 0.19062 cumulative IPC: 0.32204 (Simulation time: 0 hr 3 min 7 sec) 
Heartbeat CPU  0 instructions:  140000000 cycles:  189306327 heartbeat IPC: 0.54664 cumulative IPC: 0.32538 (Simulation time: 0 hr 3 min 8 sec) 
Heartbeat CPU  0 instructions:  141000000 cycles:  190988025 heartbeat IPC: 0.59464 cumulative IPC: 0.32901 (Simulation time: 0 hr 3 min 10 sec) 
Heartbeat CPU  0 instructions:  142000000 cycles:  193879537 heartbeat IPC: 0.34584 cumulative IPC: 0.32939 (Simulation time: 0 hr 3 min 11 sec) 
Heartbeat CPU  0 instructions:  143000000 cycles:  196532036 heartbeat IPC: 0.37700 cumulative IPC: 0.33036 (Simulation time: 0 hr 3 min 13 sec) 
Heartbeat CPU  0 instructions:  144000000 cycles:  199998456 heartbeat IPC: 0.28848 cumulative IPC: 0.32928 (Simulation time: 0 hr 3 min 15 sec) 
Heartbeat CPU  0 instructions:  145000002 cycles:  202432011 heartbeat IPC: 0.41092 cumulative IPC: 0.33074 (Simulation time: 0 hr 3 min 17 sec) 
Heartbeat CPU  0 instructions:  146000003 cycles:  205188510 heartbeat IPC: 0.36278 cumulative IPC: 0.33137 (Simulation time: 0 hr 3 min 19 sec) 
Heartbeat CPU  0 instructions:  147000002 cycles:  209309376 heartbeat IPC: 0.24267 cumulative IPC: 0.32882 (Simulation time: 0 hr 3 min 22 sec) 
Heartbeat CPU  0 instructions:  148000000 cycles:  213675625 heartbeat IPC: 0.22903 cumulative IPC: 0.32586 (Simulation time: 0 hr 3 min 24 sec) 
Heartbeat CPU  0 instructions:  149000000 cycles:  215504582 heartbeat IPC: 0.54676 cumulative IPC: 0.32857 (Simulation time: 0 hr 3 min 25 sec) 
Heartbeat CPU  0 instructions:  150000002 cycles:  217113909 heartbeat IPC: 0.62138 cumulative IPC: 0.33169 (Simulation time: 0 hr 3 min 26 sec) 
Heartbeat CPU  0 instructions:  151000000 cycles:  220518011 heartbeat IPC: 0.29376 cumulative IPC: 0.33086 (Simulation time: 0 hr 3 min 28 sec) 
Heartbeat CPU  0 instructions:  152000000 cycles:  222893795 heartbeat IPC: 0.42091 cumulative IPC: 0.33222 (Simulation time: 0 hr 3 min 30 sec) 
Heartbeat CPU  0 instructions:  153000000 cycles:  225948289 heartbeat IPC: 0.32739 cumulative IPC: 0.33213 (Simulation time: 0 hr 3 min 32 sec) 
Heartbeat CPU  0 instructions:  154000002 cycles:  229270463 heartbeat IPC: 0.30101 cumulative IPC: 0.33150 (Simulation time: 0 hr 3 min 34 sec) 
Heartbeat CPU  0 instructions:  155000002 cycles:  231208238 heartbeat IPC: 0.51606 cumulative IPC: 0.33367 (Simulation time: 0 hr 3 min 36 sec) 
Heartbeat CPU  0 instructions:  156000000 cycles:  236195715 heartbeat IPC: 0.20050 cumulative IPC: 0.32976 (Simulation time: 0 hr 3 min 39 sec) 
Heartbeat CPU  0 instructions:  157000000 cycles:  239851555 heartbeat IPC: 0.27353 cumulative IPC: 0.32857 (Simulation time: 0 hr 3 min 41 sec) 
Heartbeat CPU  0 instructions:  158000003 cycles:  241667437 heartbeat IPC: 0.55070 cumulative IPC: 0.33087 (Simulation time: 0 hr 3 min 42 sec) 
Heartbeat CPU  0 instructions:  159000000 cycles:  243195039 heartbeat IPC: 0.65462 cumulative IPC: 0.33367 (Simulation time: 0 hr 3 min 43 sec) 
Heartbeat CPU  0 instructions:  160000000 cycles:  247386622 heartbeat IPC: 0.23857 cumulative IPC: 0.33147 (Simulation time: 0 hr 3 min 45 sec) 
Heartbeat CPU  0 instructions:  161000003 cycles:  249604496 heartbeat IPC: 0.45088 cumulative IPC: 0.33291 (Simulation time: 0 hr 3 min 47 sec) 
Heartbeat CPU  0 instructions:  162000001 cycles:  252440151 heartbeat IPC: 0.35265 cumulative IPC: 0.33321 (Simulation time: 0 hr 3 min 49 sec) 
Heartbeat CPU  0 instructions:  163000000 cycles:  255810819 heartbeat IPC: 0.29668 cumulative IPC: 0.33256 (Simulation time: 0 hr 3 min 51 sec) 
Heartbeat CPU  0 instructions:  164000000 cycles:  258203948 heartbeat IPC: 0.41786 cumulative IPC: 0.33363 (Simulation time: 0 hr 3 min 53 sec) 
Heartbeat CPU  0 instructions:  165000001 cycles:  264101700 heartbeat IPC: 0.16956 cumulative IPC: 0.32873 (Simulation time: 0 hr 3 min 56 sec) 
Heartbeat CPU  0 instructions:  166000000 cycles:  266171276 heartbeat IPC: 0.48319 cumulative IPC: 0.33033 (Simulation time: 0 hr 3 min 57 sec) 
Heartbeat CPU  0 instructions:  167000001 cycles:  267929655 heartbeat IPC: 0.56871 cumulative IPC: 0.33241 (Simulation time: 0 hr 3 min 58 sec) 
Heartbeat CPU  0 instructions:  168000000 cycles:  270209249 heartbeat IPC: 0.43867 cumulative IPC: 0.33360 (Simulation time: 0 hr 4 min 0 sec) 
Heartbeat CPU  0 instructions:  169000001 cycles:  273575539 heartbeat IPC: 0.29706 cumulative IPC: 0.33301 (Simulation time: 0 hr 4 min 2 sec) 
Heartbeat CPU  0 instructions:  170000002 cycles:  276643038 heartbeat IPC: 0.32600 cumulative IPC: 0.33291 (Simulation time: 0 hr 4 min 4 sec) 
Heartbeat CPU  0 instructions:  171000000 cycles:  278707833 heartbeat IPC: 0.48431 cumulative IPC: 0.33438 (Simulation time: 0 hr 4 min 5 sec) 
Heartbeat CPU  0 instructions:  172000000 cycles:  282222459 heartbeat IPC: 0.28453 cumulative IPC: 0.33357 (Simulation time: 0 hr 4 min 7 sec) 
Heartbeat CPU  0 instructions:  173000000 cycles:  285251642 heartbeat IPC: 0.33012 cumulative IPC: 0.33352 (Simulation time: 0 hr 4 min 10 sec) 
Heartbeat CPU  0 instructions:  174000000 cycles:  290557122 heartbeat IPC: 0.18848 cumulative IPC: 0.33009 (Simulation time: 0 hr 4 min 13 sec) 
Heartbeat CPU  0 instructions:  175000000 cycles:  292386662 heartbeat IPC: 0.54659 cumulative IPC: 0.33184 (Simulation time: 0 hr 4 min 14 sec) 
Heartbeat CPU  0 instructions:  176000000 cycles:  294074322 heartbeat IPC: 0.59254 cumulative IPC: 0.33377 (Simulation time: 0 hr 4 min 15 sec) 
Heartbeat CPU  0 instructions:  177000002 cycles:  296915401 heartbeat IPC: 0.35198 cumulative IPC: 0.33399 (Simulation time: 0 hr 4 min 16 sec) 
Heartbeat CPU  0 instructions:  178000001 cycles:  299616991 heartbeat IPC: 0.37015 cumulative IPC: 0.33441 (Simulation time: 0 hr 4 min 18 sec) 
Heartbeat CPU  0 instructions:  179000002 cycles:  303088362 heartbeat IPC: 0.28807 cumulative IPC: 0.33373 (Simulation time: 0 hr 4 min 20 sec) 
Heartbeat CPU  0 instructions:  180000000 cycles:  306194162 heartbeat IPC: 0.32198 cumulative IPC: 0.33358 (Simulation time: 0 hr 4 min 22 sec) 
Heartbeat CPU  0 instructions:  181000003 cycles:  308344972 heartbeat IPC: 0.46494 cumulative IPC: 0.33475 (Simulation time: 0 hr 4 min 24 sec) 
Heartbeat CPU  0 instructions:  182000000 cycles:  313116557 heartbeat IPC: 0.20957 cumulative IPC: 0.33233 (Simulation time: 0 hr 4 min 27 sec) 
Heartbeat CPU  0 instructions:  183000000 cycles:  316957092 heartbeat IPC: 0.26038 cumulative IPC: 0.33123 (Simulation time: 0 hr 4 min 29 sec) 
Heartbeat CPU  0 instructions:  184000000 cycles:  318775058 heartbeat IPC: 0.55007 cumulative IPC: 0.33280 (Simulation time: 0 hr 4 min 30 sec) 
Heartbeat CPU  0 instructions:  185000002 cycles:  320299553 heartbeat IPC: 0.65596 cumulative IPC: 0.33474 (Simulation time: 0 hr 4 min 32 sec) 
Heartbeat CPU  0 instructions:  186000001 cycles:  324340603 heartbeat IPC: 0.24746 cumulative IPC: 0.33338 (Simulation time: 0 hr 4 min 34 sec) 
Heartbeat CPU  0 instructions:  187000000 cycles:  326636227 heartbeat IPC: 0.43561 cumulative IPC: 0.33428 (Simulation time: 0 hr 4 min 35 sec) 
Heartbeat CPU  0 instructions:  188000000 cycles:  329272867 heartbeat IPC: 0.37927 cumulative IPC: 0.33473 (Simulation time: 0 hr 4 min 37 sec) 
Heartbeat CPU  0 instructions:  189000001 cycles:  332667766 heartbeat IPC: 0.29456 cumulative IPC: 0.33422 (Simulation time: 0 hr 4 min 39 sec) 
Heartbeat CPU  0 instructions:  190000001 cycles:  334774710 heartbeat IPC: 0.47462 cumulative IPC: 0.33532 (Simulation time: 0 hr 4 min 41 sec) 
Heartbeat CPU  0 instructions:  191000001 cycles:  340361852 heartbeat IPC: 0.17898 cumulative IPC: 0.33213 (Simulation time: 0 hr 4 min 44 sec) 
Heartbeat CPU  0 instructions:  192000000 cycles:  343152149 heartbeat IPC: 0.35838 cumulative IPC: 0.33239 (Simulation time: 0 hr 4 min 46 sec) 
Heartbeat CPU  0 instructions:  193000003 cycles:  344942275 heartbeat IPC: 0.55862 cumulative IPC: 0.33385 (Simulation time: 0 hr 4 min 47 sec) 
Heartbeat CPU  0 instructions:  194000001 cycles:  346771480 heartbeat IPC: 0.54668 cumulative IPC: 0.33524 (Simulation time: 0 hr 4 min 48 sec) 
Heartbeat CPU  0 instructions:  195000001 cycles:  350620558 heartbeat IPC: 0.25980 cumulative IPC: 0.33422 (Simulation time: 0 hr 4 min 50 sec) 
Heartbeat CPU  0 instructions:  196000000 cycles:  353259343 heartbeat IPC: 0.37896 cumulative IPC: 0.33463 (Simulation time: 0 hr 4 min 52 sec) 
Heartbeat CPU  0 instructions:  197000000 cycles:  355598536 heartbeat IPC: 0.42750 cumulative IPC: 0.33538 (Simulation time: 0 hr 4 min 54 sec) 
Heartbeat CPU  0 instructions:  198000000 cycles:  359000819 heartbeat IPC: 0.29392 cumulative IPC: 0.33490 (Simulation time: 0 hr 4 min 56 sec) 
Heartbeat CPU  0 instructions:  199000000 cycles:  361594057 heartbeat IPC: 0.38562 cumulative IPC: 0.33534 (Simulation time: 0 hr 4 min 58 sec) 
Heartbeat CPU  0 instructions:  200000000 cycles:  367480309 heartbeat IPC: 0.16989 cumulative IPC: 0.33211 (Simulation time: 0 hr 5 min 1 sec) 
Finished CPU 0 instructions: 100000000 cycles: 301107459 cumulative IPC: 0.33211 (Simulation time: 0 hr 5 min 1 sec) 

ChampSim completed all CPUs

[ROI Statistics]
Core_0_instructions 100000000
Core_0_cycles 301107459
Core_0_IPC 0.33211

Core_0_branch_prediction_accuracy 95.09858
Core_0_branch_MPKI 8.66907
Core_0_average_ROB_occupancy_at_mispredict 82.85840

Core_0_L1D_total_access 34710057
Core_0_L1D_total_hit 27460638
Core_0_L1D_total_miss 7249419
Core_0_L1D_loads 15436902
Core_0_L1D_load_hit 12057539
Core_0_L1D_load_miss 3379363
Core_0_L1D_RFOs 5463000
Core_0_L1D_RFO_hit 4626997
Core_0_L1D_RFO_miss 836003
Core_0_L1D_prefetches 13810155
Core_0_L1D_prefetch_hit 10776102
Core_0_L1D_prefetch_miss 3034053
Core_0_L1D_writebacks 0
Core_0_L1D_writeback_hit 0
Core_0_L1D_writeback_miss 0
Core_0_L1D_prefetch_requested 43544109
Core_0_L1D_prefetch_issued 43028630
Core_0_L1D_prefetch_useful 3021951
Core_0_L1D_prefetch_useless 3672796
Core_0_L1D_prefetch_late 612328
Core_0_L1D_average_miss_latency 16125829.96828

Core_0_L1I_total_access 20939685
Core_0_L1I_total_hit 20939053
Core_0_L1I_total_miss 632
Core_0_L1I_loads 20939685
Core_0_L1I_load_hit 20939053
Core_0_L1I_load_miss 632
Core_0_L1I_RFOs 0
Core_0_L1I_RFO_hit 0
Core_0_L1I_RFO_miss 0
Core_0_L1I_prefetches 0
Core_0_L1I_prefetch_hit 0
Core_0_L1I_prefetch_miss 0
Core_0_L1I_writebacks 0
Core_0_L1I_writeback_hit 0
Core_0_L1I_writeback_miss 0
Core_0_L1I_prefetch_requested 0
Core_0_L1I_prefetch_issued 0
Core_0_L1I_prefetch_useful 0
Core_0_L1I_prefetch_useless 0
Core_0_L1I_prefetch_late 0
Core_0_L1I_average_miss_latency 215.57911

Core_0_L2C_total_access 9723206
Core_0_L2C_total_hit 4952442
Core_0_L2C_total_miss 4770764
Core_0_L2C_loads 2883523
Core_0_L2C_load_hit 1223590
Core_0_L2C_load_miss 1659933
Core_0_L2C_RFOs 835819
Core_0_L2C_RFO_hit 146995
Core_0_L2C_RFO_miss 688824
Core_0_L2C_prefetches 3529329
Core_0_L2C_prefetch_hit 1107465
Core_0_L2C_prefetch_miss 2421864
Core_0_L2C_writebacks 2474535
Core_0_L2C_writeback_hit 2474392
Core_0_L2C_writeback_miss 143
Core_0_L2C_prefetch_requested 0
Core_0_L2C_prefetch_issued 0
Core_0_L2C_prefetch_useful 576174
Core_0_L2C_prefetch_useless 4561533
Core_0_L2C_prefetch_late 0
Core_0_L2C_average_miss_latency 191.48680

Core_0_LLC_total_access 8503250
Core_0_LLC_total_hit 4571336
Core_0_LLC_total_miss 3931914
Core_0_LLC_loads 1659909
Core_0_LLC_load_hit 689040
Core_0_LLC_load_miss 970869
Core_0_LLC_RFOs 688821
Core_0_LLC_RFO_hit 143050
Core_0_LLC_RFO_miss 545771
Core_0_LLC_prefetches 4530702
Core_0_LLC_prefetch_hit 2116119
Core_0_LLC_prefetch_miss 2414583
Core_0_LLC_writebacks 1623818
Core_0_LLC_writeback_hit 1623127
Core_0_LLC_writeback_miss 691
Core_0_LLC_prefetch_requested 7371918
Core_0_LLC_prefetch_issued 7256409
Core_0_LLC_prefetch_useful 798778
Core_0_LLC_prefetch_useless 4305580
Core_0_LLC_prefetch_late 41209
Core_0_LLC_average_miss_latency 278.41585

Core_0_major_page_fault 0
Core_0_minor_page_fault 12935

CPU 0 L1D next line prefetcher final stats
LLC Next Line Prefetcher Final Stats: none
Channel_0_RQ_row_buffer_hit 1028095
Channel_0_RQ_row_buffer_miss 2902303
Channel_0_WQ_row_buffer_hit 413962
Channel_0_WQ_row_buffer_miss 815263
Channel_0_WQ_full 0
Channel_0_dbus_congested 2755879

avg_congested_cycle 10
