*************************************************
   ChampSim Multicore Out-of-Order Simulator
   Last compiled: Dec 24 2023 19:03:40
*************************************************

trace_0 ./test_trace/450.soplex-247B.champsimtrace.xz
Initialize DRRIP state
Assign rand_sets[0]: 454  LLC: 2048
rand_sets[0]: 454
Assign rand_sets[1]: 1662  LLC: 2048
rand_sets[1]: 1662
Assign rand_sets[2]: 1921  LLC: 2048
rand_sets[2]: 1921
Assign rand_sets[3]: 1131  LLC: 2048
rand_sets[3]: 1131
Assign rand_sets[4]: 331  LLC: 2048
rand_sets[4]: 331
Assign rand_sets[5]: 1531  LLC: 2048
rand_sets[5]: 1531
Assign rand_sets[6]: 482  LLC: 2048
rand_sets[6]: 482
Assign rand_sets[7]: 1275  LLC: 2048
rand_sets[7]: 1275
Assign rand_sets[8]: 1876  LLC: 2048
rand_sets[8]: 1876
Assign rand_sets[9]: 2038  LLC: 2048
rand_sets[9]: 2038
Assign rand_sets[10]: 701  LLC: 2048
rand_sets[10]: 701
Assign rand_sets[11]: 479  LLC: 2048
rand_sets[11]: 479
Assign rand_sets[12]: 892  LLC: 2048
rand_sets[12]: 892
Assign rand_sets[13]: 1820  LLC: 2048
rand_sets[13]: 1820
Assign rand_sets[14]: 1505  LLC: 2048
rand_sets[14]: 1505
Assign rand_sets[15]: 1159  LLC: 2048
rand_sets[15]: 1159
Assign rand_sets[16]: 513  LLC: 2048
rand_sets[16]: 513
Assign rand_sets[17]: 703  LLC: 2048
rand_sets[17]: 703
Assign rand_sets[18]: 561  LLC: 2048
rand_sets[18]: 561
Assign rand_sets[19]: 990  LLC: 2048
rand_sets[19]: 990
Assign rand_sets[20]: 342  LLC: 2048
rand_sets[20]: 342
Assign rand_sets[21]: 882  LLC: 2048
rand_sets[21]: 882
Assign rand_sets[22]: 15  LLC: 2048
rand_sets[22]: 15
Assign rand_sets[23]: 71  LLC: 2048
rand_sets[23]: 71
Assign rand_sets[24]: 1127  LLC: 2048
rand_sets[24]: 1127
Assign rand_sets[25]: 1382  LLC: 2048
rand_sets[25]: 1382
Assign rand_sets[26]: 647  LLC: 2048
rand_sets[26]: 647
Assign rand_sets[27]: 857  LLC: 2048
rand_sets[27]: 857
Assign rand_sets[28]: 1450  LLC: 2048
rand_sets[28]: 1450
Assign rand_sets[29]: 1160  LLC: 2048
rand_sets[29]: 1160
Assign rand_sets[30]: 1852  LLC: 2048
rand_sets[30]: 1852
Assign rand_sets[31]: 1881  LLC: 2048
rand_sets[31]: 1881
Assign rand_sets[32]: 1770  LLC: 2048
rand_sets[32]: 1770
Assign rand_sets[33]: 1622  LLC: 2048
rand_sets[33]: 1622
Assign rand_sets[34]: 275  LLC: 2048
rand_sets[34]: 275
Assign rand_sets[35]: 635  LLC: 2048
rand_sets[35]: 635
Assign rand_sets[36]: 466  LLC: 2048
rand_sets[36]: 466
Assign rand_sets[37]: 1413  LLC: 2048
rand_sets[37]: 1413
Assign rand_sets[38]: 417  LLC: 2048
rand_sets[38]: 417
Assign rand_sets[39]: 472  LLC: 2048
rand_sets[39]: 472
Assign rand_sets[40]: 1340  LLC: 2048
rand_sets[40]: 1340
Assign rand_sets[41]: 852  LLC: 2048
rand_sets[41]: 852
Assign rand_sets[42]: 1365  LLC: 2048
rand_sets[42]: 1365
Assign rand_sets[43]: 47  LLC: 2048
rand_sets[43]: 47
Assign rand_sets[44]: 823  LLC: 2048
rand_sets[44]: 823
Assign rand_sets[45]: 686  LLC: 2048
rand_sets[45]: 686
Assign rand_sets[46]: 1637  LLC: 2048
rand_sets[46]: 1637
Assign rand_sets[47]: 1115  LLC: 2048
rand_sets[47]: 1115
Assign rand_sets[48]: 986  LLC: 2048
rand_sets[48]: 986
Assign rand_sets[49]: 258  LLC: 2048
rand_sets[49]: 258
Assign rand_sets[50]: 633  LLC: 2048
rand_sets[50]: 633
Assign rand_sets[51]: 920  LLC: 2048
rand_sets[51]: 920
Assign rand_sets[52]: 204  LLC: 2048
rand_sets[52]: 204
Assign rand_sets[53]: 227  LLC: 2048
rand_sets[53]: 227
Assign rand_sets[54]: 1818  LLC: 2048
rand_sets[54]: 1818
Assign rand_sets[55]: 886  LLC: 2048
rand_sets[55]: 886
Assign rand_sets[56]: 1422  LLC: 2048
rand_sets[56]: 1422
Assign rand_sets[57]: 607  LLC: 2048
rand_sets[57]: 607
Assign rand_sets[58]: 217  LLC: 2048
rand_sets[58]: 217
Assign rand_sets[59]: 1945  LLC: 2048
rand_sets[59]: 1945
Assign rand_sets[60]: 143  LLC: 2048
rand_sets[60]: 143
Assign rand_sets[61]: 1311  LLC: 2048
rand_sets[61]: 1311
Assign rand_sets[62]: 319  LLC: 2048
rand_sets[62]: 319
Assign rand_sets[63]: 1846  LLC: 2048
rand_sets[63]: 1846
warmup_instructions 100000000
simulation_instructions 100000000
champsim_seed 223

num_cpus 1
cpu_freq 4000
dram_io_freq 2400
page_size 4096
block_size 64
max_read_per_cycle 8
max_fill_per_cycle 1
dram_channels 1
dram_ranks 1
dram_banks 8
dram_rows 65536
dram_columns 128
dram_row_size 8
dram_size 4096
dram_pages 1048576

fetch_width 6
decode_width 6
exec_width 4
lq_width 2
sq_width 2
retire_width 4
scheduler_size 128
branch_mispredict_penalty 20
rob_size 256
lq_size 72
sq_size 56
num_instr_destinations_sparc 4
num_instr_destinations 2
num_instr_sources 4

itlb_set 16
itlb_way 8
itlb_rq_size 16
itlb_wq_size 16
itlb_pq_size 0
itlb_mshr_size 8
itlb_latency 1

dtlb_set 16
dtlb_way 4
dtlb_rq_size 16
dtlb_wq_size 16
dtlb_pq_size 0
dtlb_mshr_size 8
dtlb_latency 1

stlb_set 128
stlb_way 12
stlb_rq_size 32
stlb_wq_size 32
stlb_pq_size 0
stlb_mshr_size 16
stlb_latency 8

l1i_size 32
l1i_set 64
l1i_way 8
l1i_rq_size 64
l1i_wq_size 64
l1i_pq_size 8
l1i_mshr_size 8
l1i_latency 1

l1d_size 32
l1d_set 64
l1d_way 8
l1d_rq_size 64
l1d_wq_size 64
l1d_pq_size 8
l1d_mshr_size 16
l1d_latency 4

l2c_size 512
l2c_set 1024
l2c_way 8
l2c_rq_size 32
l2c_wq_size 32
l2c_pq_size 16
l2c_mshr_size 32
l2c_latency 10

llc_size 2048
llc_set 2048
llc_way 16
llc_rq_size 32
llc_wq_size 32
llc_pq_size 32
llc_mshr_size 64
llc_latency 20

dram_channel_width 8
dram_wq_size 64
dram_rq_size 64
tRP 15
tRCD 15
tCAS 12.5
dram_dbus_turn_around_time 30
dram_write_high_wm 56
dram_write_low_wm 48
min_dram_writes_per_switch 16
dram_mtps 2400
dram_dbus_return_time 13


Heartbeat CPU  0 instructions:    1000002 cycles:     760298 heartbeat IPC: 1.31528 cumulative IPC: 1.31528 (Simulation time: 0 hr 0 min 2 sec) 
Heartbeat CPU  0 instructions:    2000001 cycles:    1402079 heartbeat IPC: 1.55816 cumulative IPC: 1.42645 (Simulation time: 0 hr 0 min 3 sec) 
Heartbeat CPU  0 instructions:    3000001 cycles:    2127256 heartbeat IPC: 1.37897 cumulative IPC: 1.41027 (Simulation time: 0 hr 0 min 4 sec) 
Heartbeat CPU  0 instructions:    4000000 cycles:    2668449 heartbeat IPC: 1.84777 cumulative IPC: 1.49900 (Simulation time: 0 hr 0 min 5 sec) 
Heartbeat CPU  0 instructions:    5000000 cycles:    3575137 heartbeat IPC: 1.10292 cumulative IPC: 1.39855 (Simulation time: 0 hr 0 min 6 sec) 
Heartbeat CPU  0 instructions:    6000001 cycles:    4466217 heartbeat IPC: 1.12223 cumulative IPC: 1.34342 (Simulation time: 0 hr 0 min 7 sec) 
Heartbeat CPU  0 instructions:    7000000 cycles:    5264660 heartbeat IPC: 1.25244 cumulative IPC: 1.32962 (Simulation time: 0 hr 0 min 8 sec) 
Heartbeat CPU  0 instructions:    8000000 cycles:    5956785 heartbeat IPC: 1.44483 cumulative IPC: 1.34301 (Simulation time: 0 hr 0 min 10 sec) 
Heartbeat CPU  0 instructions:    9000001 cycles:    6573230 heartbeat IPC: 1.62221 cumulative IPC: 1.36919 (Simulation time: 0 hr 0 min 11 sec) 
Heartbeat CPU  0 instructions:   10000000 cycles:    7120277 heartbeat IPC: 1.82799 cumulative IPC: 1.40444 (Simulation time: 0 hr 0 min 12 sec) 
Heartbeat CPU  0 instructions:   11000001 cycles:    7718876 heartbeat IPC: 1.67057 cumulative IPC: 1.42508 (Simulation time: 0 hr 0 min 13 sec) 
Heartbeat CPU  0 instructions:   12000000 cycles:    8403614 heartbeat IPC: 1.46041 cumulative IPC: 1.42796 (Simulation time: 0 hr 0 min 14 sec) 
Heartbeat CPU  0 instructions:   13000000 cycles:    9289088 heartbeat IPC: 1.12934 cumulative IPC: 1.39949 (Simulation time: 0 hr 0 min 15 sec) 
Heartbeat CPU  0 instructions:   14000002 cycles:   10041146 heartbeat IPC: 1.32969 cumulative IPC: 1.39426 (Simulation time: 0 hr 0 min 15 sec) 
Heartbeat CPU  0 instructions:   15000002 cycles:   10653217 heartbeat IPC: 1.63380 cumulative IPC: 1.40803 (Simulation time: 0 hr 0 min 16 sec) 
Heartbeat CPU  0 instructions:   16000000 cycles:   11184784 heartbeat IPC: 1.88123 cumulative IPC: 1.43051 (Simulation time: 0 hr 0 min 17 sec) 
Heartbeat CPU  0 instructions:   17000000 cycles:   11998894 heartbeat IPC: 1.22834 cumulative IPC: 1.41680 (Simulation time: 0 hr 0 min 18 sec) 
Heartbeat CPU  0 instructions:   18000001 cycles:   12619473 heartbeat IPC: 1.61140 cumulative IPC: 1.42637 (Simulation time: 0 hr 0 min 20 sec) 
Heartbeat CPU  0 instructions:   19000001 cycles:   13160537 heartbeat IPC: 1.84821 cumulative IPC: 1.44371 (Simulation time: 0 hr 0 min 21 sec) 
Heartbeat CPU  0 instructions:   20000000 cycles:   13763239 heartbeat IPC: 1.65919 cumulative IPC: 1.45315 (Simulation time: 0 hr 0 min 22 sec) 
Heartbeat CPU  0 instructions:   21000001 cycles:   14428151 heartbeat IPC: 1.50396 cumulative IPC: 1.45549 (Simulation time: 0 hr 0 min 23 sec) 
Heartbeat CPU  0 instructions:   22000003 cycles:   15309553 heartbeat IPC: 1.13456 cumulative IPC: 1.43701 (Simulation time: 0 hr 0 min 23 sec) 
Heartbeat CPU  0 instructions:   23000001 cycles:   16078389 heartbeat IPC: 1.30066 cumulative IPC: 1.43049 (Simulation time: 0 hr 0 min 24 sec) 
Heartbeat CPU  0 instructions:   24000000 cycles:   16686184 heartbeat IPC: 1.64529 cumulative IPC: 1.43832 (Simulation time: 0 hr 0 min 25 sec) 
Heartbeat CPU  0 instructions:   25000000 cycles:   17232796 heartbeat IPC: 1.82945 cumulative IPC: 1.45072 (Simulation time: 0 hr 0 min 26 sec) 
Heartbeat CPU  0 instructions:   26000001 cycles:   18033655 heartbeat IPC: 1.24866 cumulative IPC: 1.44175 (Simulation time: 0 hr 0 min 27 sec) 
Heartbeat CPU  0 instructions:   27000003 cycles:   18622942 heartbeat IPC: 1.69697 cumulative IPC: 1.44982 (Simulation time: 0 hr 0 min 29 sec) 
Heartbeat CPU  0 instructions:   28000000 cycles:   19182462 heartbeat IPC: 1.78724 cumulative IPC: 1.45967 (Simulation time: 0 hr 0 min 30 sec) 
Heartbeat CPU  0 instructions:   29000002 cycles:   19740245 heartbeat IPC: 1.79282 cumulative IPC: 1.46908 (Simulation time: 0 hr 0 min 31 sec) 
Heartbeat CPU  0 instructions:   30000001 cycles:   20336746 heartbeat IPC: 1.67644 cumulative IPC: 1.47516 (Simulation time: 0 hr 0 min 32 sec) 
Heartbeat CPU  0 instructions:   31000002 cycles:   21208124 heartbeat IPC: 1.14761 cumulative IPC: 1.46170 (Simulation time: 0 hr 0 min 33 sec) 
Heartbeat CPU  0 instructions:   32000000 cycles:   22031335 heartbeat IPC: 1.21475 cumulative IPC: 1.45248 (Simulation time: 0 hr 0 min 33 sec) 
Heartbeat CPU  0 instructions:   33000000 cycles:   22634338 heartbeat IPC: 1.65837 cumulative IPC: 1.45796 (Simulation time: 0 hr 0 min 34 sec) 
Heartbeat CPU  0 instructions:   34000000 cycles:   23260803 heartbeat IPC: 1.59626 cumulative IPC: 1.46169 (Simulation time: 0 hr 0 min 35 sec) 
Heartbeat CPU  0 instructions:   35000002 cycles:   23986517 heartbeat IPC: 1.37796 cumulative IPC: 1.45915 (Simulation time: 0 hr 0 min 36 sec) 
Heartbeat CPU  0 instructions:   36000000 cycles:   24607709 heartbeat IPC: 1.60980 cumulative IPC: 1.46296 (Simulation time: 0 hr 0 min 38 sec) 
Heartbeat CPU  0 instructions:   37000002 cycles:   25148832 heartbeat IPC: 1.84801 cumulative IPC: 1.47124 (Simulation time: 0 hr 0 min 39 sec) 
Heartbeat CPU  0 instructions:   38000002 cycles:   25716295 heartbeat IPC: 1.76223 cumulative IPC: 1.47766 (Simulation time: 0 hr 0 min 40 sec) 
Heartbeat CPU  0 instructions:   39000000 cycles:   26306049 heartbeat IPC: 1.69562 cumulative IPC: 1.48255 (Simulation time: 0 hr 0 min 41 sec) 
Heartbeat CPU  0 instructions:   40000000 cycles:   27085567 heartbeat IPC: 1.28284 cumulative IPC: 1.47680 (Simulation time: 0 hr 0 min 42 sec) 
Heartbeat CPU  0 instructions:   41000001 cycles:   27954475 heartbeat IPC: 1.15087 cumulative IPC: 1.46667 (Simulation time: 0 hr 0 min 42 sec) 
Heartbeat CPU  0 instructions:   42000001 cycles:   28607674 heartbeat IPC: 1.53093 cumulative IPC: 1.46814 (Simulation time: 0 hr 0 min 43 sec) 
Heartbeat CPU  0 instructions:   43000000 cycles:   29259745 heartbeat IPC: 1.53357 cumulative IPC: 1.46960 (Simulation time: 0 hr 0 min 44 sec) 
Heartbeat CPU  0 instructions:   44000000 cycles:   29885469 heartbeat IPC: 1.59815 cumulative IPC: 1.47229 (Simulation time: 0 hr 0 min 45 sec) 
Heartbeat CPU  0 instructions:   45000000 cycles:   30630099 heartbeat IPC: 1.34295 cumulative IPC: 1.46914 (Simulation time: 0 hr 0 min 46 sec) 
Heartbeat CPU  0 instructions:   46000001 cycles:   31172527 heartbeat IPC: 1.84356 cumulative IPC: 1.47566 (Simulation time: 0 hr 0 min 48 sec) 
Heartbeat CPU  0 instructions:   47000000 cycles:   31732982 heartbeat IPC: 1.78426 cumulative IPC: 1.48111 (Simulation time: 0 hr 0 min 49 sec) 
Heartbeat CPU  0 instructions:   48000000 cycles:   32326573 heartbeat IPC: 1.68466 cumulative IPC: 1.48485 (Simulation time: 0 hr 0 min 50 sec) 
Heartbeat CPU  0 instructions:   49000001 cycles:   33071933 heartbeat IPC: 1.34163 cumulative IPC: 1.48162 (Simulation time: 0 hr 0 min 51 sec) 
Heartbeat CPU  0 instructions:   50000001 cycles:   33942622 heartbeat IPC: 1.14852 cumulative IPC: 1.47307 (Simulation time: 0 hr 0 min 51 sec) 
Heartbeat CPU  0 instructions:   51000003 cycles:   34638446 heartbeat IPC: 1.43715 cumulative IPC: 1.47235 (Simulation time: 0 hr 0 min 52 sec) 
Heartbeat CPU  0 instructions:   52000000 cycles:   35256902 heartbeat IPC: 1.61693 cumulative IPC: 1.47489 (Simulation time: 0 hr 0 min 53 sec) 
Heartbeat CPU  0 instructions:   53000000 cycles:   35836709 heartbeat IPC: 1.72471 cumulative IPC: 1.47893 (Simulation time: 0 hr 0 min 54 sec) 
Heartbeat CPU  0 instructions:   54000002 cycles:   36612257 heartbeat IPC: 1.28941 cumulative IPC: 1.47492 (Simulation time: 0 hr 0 min 55 sec) 
Heartbeat CPU  0 instructions:   55000001 cycles:   37194971 heartbeat IPC: 1.71611 cumulative IPC: 1.47869 (Simulation time: 0 hr 0 min 57 sec) 
Heartbeat CPU  0 instructions:   56000000 cycles:   37749012 heartbeat IPC: 1.80492 cumulative IPC: 1.48348 (Simulation time: 0 hr 0 min 58 sec) 
Heartbeat CPU  0 instructions:   57000002 cycles:   38344337 heartbeat IPC: 1.67976 cumulative IPC: 1.48653 (Simulation time: 0 hr 0 min 59 sec) 
Heartbeat CPU  0 instructions:   58000001 cycles:   39083327 heartbeat IPC: 1.35320 cumulative IPC: 1.48401 (Simulation time: 0 hr 1 min 0 sec) 
Heartbeat CPU  0 instructions:   59000001 cycles:   39956238 heartbeat IPC: 1.14559 cumulative IPC: 1.47662 (Simulation time: 0 hr 1 min 0 sec) 
Heartbeat CPU  0 instructions:   60000000 cycles:   40677561 heartbeat IPC: 1.38634 cumulative IPC: 1.47501 (Simulation time: 0 hr 1 min 1 sec) 
Heartbeat CPU  0 instructions:   61000003 cycles:   41306199 heartbeat IPC: 1.59075 cumulative IPC: 1.47678 (Simulation time: 0 hr 1 min 2 sec) 
Heartbeat CPU  0 instructions:   62000001 cycles:   41877980 heartbeat IPC: 1.74892 cumulative IPC: 1.48049 (Simulation time: 0 hr 1 min 3 sec) 
Heartbeat CPU  0 instructions:   63000000 cycles:   42676629 heartbeat IPC: 1.25211 cumulative IPC: 1.47622 (Simulation time: 0 hr 1 min 4 sec) 
Heartbeat CPU  0 instructions:   64000000 cycles:   43278257 heartbeat IPC: 1.66216 cumulative IPC: 1.47880 (Simulation time: 0 hr 1 min 6 sec) 
Heartbeat CPU  0 instructions:   65000003 cycles:   43830181 heartbeat IPC: 1.81185 cumulative IPC: 1.48300 (Simulation time: 0 hr 1 min 7 sec) 
Heartbeat CPU  0 instructions:   66000000 cycles:   44423523 heartbeat IPC: 1.68536 cumulative IPC: 1.48570 (Simulation time: 0 hr 1 min 8 sec) 
Heartbeat CPU  0 instructions:   67000000 cycles:   45118509 heartbeat IPC: 1.43888 cumulative IPC: 1.48498 (Simulation time: 0 hr 1 min 9 sec) 
Heartbeat CPU  0 instructions:   68000000 cycles:   45996908 heartbeat IPC: 1.13843 cumulative IPC: 1.47836 (Simulation time: 0 hr 1 min 9 sec) 
Heartbeat CPU  0 instructions:   69000001 cycles:   46750682 heartbeat IPC: 1.32666 cumulative IPC: 1.47591 (Simulation time: 0 hr 1 min 10 sec) 
Heartbeat CPU  0 instructions:   70000000 cycles:   47375785 heartbeat IPC: 1.59973 cumulative IPC: 1.47755 (Simulation time: 0 hr 1 min 11 sec) 
Heartbeat CPU  0 instructions:   71000002 cycles:   47912244 heartbeat IPC: 1.86408 cumulative IPC: 1.48188 (Simulation time: 0 hr 1 min 12 sec) 
Heartbeat CPU  0 instructions:   72000000 cycles:   48722025 heartbeat IPC: 1.23490 cumulative IPC: 1.47777 (Simulation time: 0 hr 1 min 13 sec) 
Heartbeat CPU  0 instructions:   73000001 cycles:   49334631 heartbeat IPC: 1.63237 cumulative IPC: 1.47969 (Simulation time: 0 hr 1 min 15 sec) 
Heartbeat CPU  0 instructions:   74000002 cycles:   49880885 heartbeat IPC: 1.83065 cumulative IPC: 1.48353 (Simulation time: 0 hr 1 min 16 sec) 
Heartbeat CPU  0 instructions:   75000003 cycles:   50483513 heartbeat IPC: 1.65940 cumulative IPC: 1.48563 (Simulation time: 0 hr 1 min 17 sec) 
Heartbeat CPU  0 instructions:   76000000 cycles:   51143709 heartbeat IPC: 1.51470 cumulative IPC: 1.48601 (Simulation time: 0 hr 1 min 18 sec) 
Heartbeat CPU  0 instructions:   77000001 cycles:   52019177 heartbeat IPC: 1.14225 cumulative IPC: 1.48022 (Simulation time: 0 hr 1 min 18 sec) 
Heartbeat CPU  0 instructions:   78000001 cycles:   52795103 heartbeat IPC: 1.28878 cumulative IPC: 1.47741 (Simulation time: 0 hr 1 min 19 sec) 
Heartbeat CPU  0 instructions:   79000003 cycles:   53417321 heartbeat IPC: 1.60716 cumulative IPC: 1.47892 (Simulation time: 0 hr 1 min 20 sec) 
Heartbeat CPU  0 instructions:   80000000 cycles:   53988911 heartbeat IPC: 1.74950 cumulative IPC: 1.48179 (Simulation time: 0 hr 1 min 21 sec) 
Heartbeat CPU  0 instructions:   81000001 cycles:   54777856 heartbeat IPC: 1.26752 cumulative IPC: 1.47870 (Simulation time: 0 hr 1 min 22 sec) 
Heartbeat CPU  0 instructions:   82000002 cycles:   55406224 heartbeat IPC: 1.59143 cumulative IPC: 1.47998 (Simulation time: 0 hr 1 min 24 sec) 
Heartbeat CPU  0 instructions:   83000003 cycles:   55969808 heartbeat IPC: 1.77436 cumulative IPC: 1.48294 (Simulation time: 0 hr 1 min 25 sec) 
Heartbeat CPU  0 instructions:   84000000 cycles:   56526240 heartbeat IPC: 1.79716 cumulative IPC: 1.48604 (Simulation time: 0 hr 1 min 26 sec) 
Heartbeat CPU  0 instructions:   85000001 cycles:   57122365 heartbeat IPC: 1.67750 cumulative IPC: 1.48803 (Simulation time: 0 hr 1 min 27 sec) 
Heartbeat CPU  0 instructions:   86000000 cycles:   57997282 heartbeat IPC: 1.14296 cumulative IPC: 1.48283 (Simulation time: 0 hr 1 min 28 sec) 
Heartbeat CPU  0 instructions:   87000000 cycles:   58826534 heartbeat IPC: 1.20591 cumulative IPC: 1.47892 (Simulation time: 0 hr 1 min 28 sec) 
Heartbeat CPU  0 instructions:   88000000 cycles:   59449377 heartbeat IPC: 1.60554 cumulative IPC: 1.48025 (Simulation time: 0 hr 1 min 29 sec) 
Heartbeat CPU  0 instructions:   89000003 cycles:   60102038 heartbeat IPC: 1.53219 cumulative IPC: 1.48082 (Simulation time: 0 hr 1 min 30 sec) 
Heartbeat CPU  0 instructions:   90000003 cycles:   60797643 heartbeat IPC: 1.43760 cumulative IPC: 1.48032 (Simulation time: 0 hr 1 min 31 sec) 
Heartbeat CPU  0 instructions:   91000001 cycles:   61488826 heartbeat IPC: 1.44679 cumulative IPC: 1.47994 (Simulation time: 0 hr 1 min 33 sec) 
Heartbeat CPU  0 instructions:   92000000 cycles:   62064527 heartbeat IPC: 1.73701 cumulative IPC: 1.48233 (Simulation time: 0 hr 1 min 34 sec) 
Heartbeat CPU  0 instructions:   93000000 cycles:   62611467 heartbeat IPC: 1.82835 cumulative IPC: 1.48535 (Simulation time: 0 hr 1 min 35 sec) 
Heartbeat CPU  0 instructions:   94000002 cycles:   63209078 heartbeat IPC: 1.67333 cumulative IPC: 1.48713 (Simulation time: 0 hr 1 min 36 sec) 
Heartbeat CPU  0 instructions:   95000003 cycles:   64049107 heartbeat IPC: 1.19044 cumulative IPC: 1.48324 (Simulation time: 0 hr 1 min 37 sec) 
Heartbeat CPU  0 instructions:   96000000 cycles:   64899356 heartbeat IPC: 1.17612 cumulative IPC: 1.47921 (Simulation time: 0 hr 1 min 37 sec) 
Heartbeat CPU  0 instructions:   97000002 cycles:   65536880 heartbeat IPC: 1.56857 cumulative IPC: 1.48008 (Simulation time: 0 hr 1 min 38 sec) 
Heartbeat CPU  0 instructions:   98000003 cycles:   66194601 heartbeat IPC: 1.52040 cumulative IPC: 1.48048 (Simulation time: 0 hr 1 min 39 sec) 
Heartbeat CPU  0 instructions:   99000002 cycles:   66848075 heartbeat IPC: 1.53028 cumulative IPC: 1.48097 (Simulation time: 0 hr 1 min 40 sec) 
Heartbeat CPU  0 instructions:  100000000 cycles:   67433782 heartbeat IPC: 1.70733 cumulative IPC: 1.48294 (Simulation time: 0 hr 1 min 42 sec) 

Warmup complete CPU  0 instructions:  100000002 cycles:   67433784 (Simulation time: 0 hr 1 min 42 sec) 

Heartbeat CPU  0 instructions:  101000001 cycles:   74945520 heartbeat IPC: 0.13313 cumulative IPC: 0.13312 (Simulation time: 0 hr 1 min 44 sec) 
Heartbeat CPU  0 instructions:  102000001 cycles:   79763769 heartbeat IPC: 0.20754 cumulative IPC: 0.16221 (Simulation time: 0 hr 1 min 47 sec) 
Heartbeat CPU  0 instructions:  103000001 cycles:   84475632 heartbeat IPC: 0.21223 cumulative IPC: 0.17604 (Simulation time: 0 hr 1 min 49 sec) 
Heartbeat CPU  0 instructions:  104000000 cycles:   89936574 heartbeat IPC: 0.18312 cumulative IPC: 0.17776 (Simulation time: 0 hr 1 min 52 sec) 
Heartbeat CPU  0 instructions:  105000003 cycles:   94445272 heartbeat IPC: 0.22179 cumulative IPC: 0.18511 (Simulation time: 0 hr 1 min 55 sec) 
Heartbeat CPU  0 instructions:  106000001 cycles:   98609479 heartbeat IPC: 0.24014 cumulative IPC: 0.19246 (Simulation time: 0 hr 1 min 58 sec) 
Heartbeat CPU  0 instructions:  107000003 cycles:  103144799 heartbeat IPC: 0.22049 cumulative IPC: 0.19602 (Simulation time: 0 hr 2 min 0 sec) 
Heartbeat CPU  0 instructions:  108000000 cycles:  107124117 heartbeat IPC: 0.25130 cumulative IPC: 0.20156 (Simulation time: 0 hr 2 min 2 sec) 
Heartbeat CPU  0 instructions:  109000000 cycles:  111055573 heartbeat IPC: 0.25436 cumulative IPC: 0.20632 (Simulation time: 0 hr 2 min 4 sec) 
Heartbeat CPU  0 instructions:  110000001 cycles:  113854023 heartbeat IPC: 0.35734 cumulative IPC: 0.21542 (Simulation time: 0 hr 2 min 5 sec) 
Heartbeat CPU  0 instructions:  111000003 cycles:  117042998 heartbeat IPC: 0.31358 cumulative IPC: 0.22173 (Simulation time: 0 hr 2 min 7 sec) 
Heartbeat CPU  0 instructions:  112000000 cycles:  119217978 heartbeat IPC: 0.45977 cumulative IPC: 0.23173 (Simulation time: 0 hr 2 min 9 sec) 
Heartbeat CPU  0 instructions:  113000002 cycles:  121256942 heartbeat IPC: 0.49045 cumulative IPC: 0.24153 (Simulation time: 0 hr 2 min 11 sec) 
Heartbeat CPU  0 instructions:  114000001 cycles:  123335103 heartbeat IPC: 0.48119 cumulative IPC: 0.25044 (Simulation time: 0 hr 2 min 12 sec) 
Heartbeat CPU  0 instructions:  115000000 cycles:  126394816 heartbeat IPC: 0.32683 cumulative IPC: 0.25441 (Simulation time: 0 hr 2 min 14 sec) 
Heartbeat CPU  0 instructions:  116000000 cycles:  130937854 heartbeat IPC: 0.22012 cumulative IPC: 0.25195 (Simulation time: 0 hr 2 min 16 sec) 
Heartbeat CPU  0 instructions:  117000000 cycles:  134901610 heartbeat IPC: 0.25229 cumulative IPC: 0.25197 (Simulation time: 0 hr 2 min 19 sec) 
Heartbeat CPU  0 instructions:  118000002 cycles:  137492888 heartbeat IPC: 0.38591 cumulative IPC: 0.25693 (Simulation time: 0 hr 2 min 20 sec) 
Heartbeat CPU  0 instructions:  119000000 cycles:  141311459 heartbeat IPC: 0.26188 cumulative IPC: 0.25718 (Simulation time: 0 hr 2 min 23 sec) 
Heartbeat CPU  0 instructions:  120000000 cycles:  143752795 heartbeat IPC: 0.40961 cumulative IPC: 0.26206 (Simulation time: 0 hr 2 min 24 sec) 
Heartbeat CPU  0 instructions:  121000001 cycles:  148951584 heartbeat IPC: 0.19235 cumulative IPC: 0.25761 (Simulation time: 0 hr 2 min 27 sec) 
Heartbeat CPU  0 instructions:  122000001 cycles:  152812845 heartbeat IPC: 0.25898 cumulative IPC: 0.25767 (Simulation time: 0 hr 2 min 29 sec) 
Heartbeat CPU  0 instructions:  123000000 cycles:  154935935 heartbeat IPC: 0.47101 cumulative IPC: 0.26285 (Simulation time: 0 hr 2 min 30 sec) 
Heartbeat CPU  0 instructions:  124000000 cycles:  156687052 heartbeat IPC: 0.57106 cumulative IPC: 0.26890 (Simulation time: 0 hr 2 min 31 sec) 
Heartbeat CPU  0 instructions:  125000000 cycles:  160992661 heartbeat IPC: 0.23226 cumulative IPC: 0.26721 (Simulation time: 0 hr 2 min 33 sec) 
Heartbeat CPU  0 instructions:  126000000 cycles:  164370837 heartbeat IPC: 0.29602 cumulative IPC: 0.26822 (Simulation time: 0 hr 2 min 35 sec) 
Heartbeat CPU  0 instructions:  127000002 cycles:  168818471 heartbeat IPC: 0.22484 cumulative IPC: 0.26631 (Simulation time: 0 hr 2 min 37 sec) 
Heartbeat CPU  0 instructions:  128000000 cycles:  172338948 heartbeat IPC: 0.28405 cumulative IPC: 0.26691 (Simulation time: 0 hr 2 min 39 sec) 
Heartbeat CPU  0 instructions:  129000002 cycles:  174866793 heartbeat IPC: 0.39559 cumulative IPC: 0.26994 (Simulation time: 0 hr 2 min 41 sec) 
Heartbeat CPU  0 instructions:  130000000 cycles:  180372271 heartbeat IPC: 0.18164 cumulative IPC: 0.26563 (Simulation time: 0 hr 2 min 44 sec) 
Heartbeat CPU  0 instructions:  131000000 cycles:  182655921 heartbeat IPC: 0.43790 cumulative IPC: 0.26905 (Simulation time: 0 hr 2 min 45 sec) 
Heartbeat CPU  0 instructions:  132000000 cycles:  184648948 heartbeat IPC: 0.50175 cumulative IPC: 0.27300 (Simulation time: 0 hr 2 min 46 sec) 
Heartbeat CPU  0 instructions:  133000000 cycles:  187197124 heartbeat IPC: 0.39244 cumulative IPC: 0.27554 (Simulation time: 0 hr 2 min 47 sec) 
Heartbeat CPU  0 instructions:  134000000 cycles:  191260933 heartbeat IPC: 0.24607 cumulative IPC: 0.27458 (Simulation time: 0 hr 2 min 49 sec) 
Heartbeat CPU  0 instructions:  135000002 cycles:  195963973 heartbeat IPC: 0.21263 cumulative IPC: 0.27231 (Simulation time: 0 hr 2 min 51 sec) 
Heartbeat CPU  0 instructions:  136000000 cycles:  198524426 heartbeat IPC: 0.39056 cumulative IPC: 0.27462 (Simulation time: 0 hr 2 min 53 sec) 
Heartbeat CPU  0 instructions:  137000000 cycles:  201937770 heartbeat IPC: 0.29297 cumulative IPC: 0.27508 (Simulation time: 0 hr 2 min 55 sec) 
Heartbeat CPU  0 instructions:  138000002 cycles:  205317830 heartbeat IPC: 0.29585 cumulative IPC: 0.27559 (Simulation time: 0 hr 2 min 57 sec) 
Heartbeat CPU  0 instructions:  139000000 cycles:  210159907 heartbeat IPC: 0.20652 cumulative IPC: 0.27325 (Simulation time: 0 hr 3 min 0 sec) 
Heartbeat CPU  0 instructions:  140000000 cycles:  212287187 heartbeat IPC: 0.47008 cumulative IPC: 0.27614 (Simulation time: 0 hr 3 min 1 sec) 
Heartbeat CPU  0 instructions:  141000000 cycles:  214175359 heartbeat IPC: 0.52961 cumulative IPC: 0.27940 (Simulation time: 0 hr 3 min 2 sec) 
Heartbeat CPU  0 instructions:  142000000 cycles:  217411802 heartbeat IPC: 0.30898 cumulative IPC: 0.28004 (Simulation time: 0 hr 3 min 3 sec) 
Heartbeat CPU  0 instructions:  143000003 cycles:  220880115 heartbeat IPC: 0.28833 cumulative IPC: 0.28023 (Simulation time: 0 hr 3 min 5 sec) 
Heartbeat CPU  0 instructions:  144000000 cycles:  225978499 heartbeat IPC: 0.19614 cumulative IPC: 0.27752 (Simulation time: 0 hr 3 min 7 sec) 
Heartbeat CPU  0 instructions:  145000002 cycles:  228604463 heartbeat IPC: 0.38081 cumulative IPC: 0.27921 (Simulation time: 0 hr 3 min 9 sec) 
Heartbeat CPU  0 instructions:  146000003 cycles:  231302346 heartbeat IPC: 0.37066 cumulative IPC: 0.28071 (Simulation time: 0 hr 3 min 11 sec) 
Heartbeat CPU  0 instructions:  147000002 cycles:  235636972 heartbeat IPC: 0.23070 cumulative IPC: 0.27942 (Simulation time: 0 hr 3 min 13 sec) 
Heartbeat CPU  0 instructions:  148000000 cycles:  239752574 heartbeat IPC: 0.24298 cumulative IPC: 0.27855 (Simulation time: 0 hr 3 min 15 sec) 
Heartbeat CPU  0 instructions:  149000000 cycles:  241885597 heartbeat IPC: 0.46882 cumulative IPC: 0.28088 (Simulation time: 0 hr 3 min 16 sec) 
Heartbeat CPU  0 instructions:  150000002 cycles:  243684965 heartbeat IPC: 0.55575 cumulative IPC: 0.28369 (Simulation time: 0 hr 3 min 17 sec) 
Heartbeat CPU  0 instructions:  151000000 cycles:  247593612 heartbeat IPC: 0.25584 cumulative IPC: 0.28308 (Simulation time: 0 hr 3 min 19 sec) 
Heartbeat CPU  0 instructions:  152000000 cycles:  250811998 heartbeat IPC: 0.31071 cumulative IPC: 0.28357 (Simulation time: 0 hr 3 min 21 sec) 
Heartbeat CPU  0 instructions:  153000000 cycles:  255328044 heartbeat IPC: 0.22143 cumulative IPC: 0.28207 (Simulation time: 0 hr 3 min 23 sec) 
Heartbeat CPU  0 instructions:  154000002 cycles:  258751069 heartbeat IPC: 0.29214 cumulative IPC: 0.28225 (Simulation time: 0 hr 3 min 25 sec) 
Heartbeat CPU  0 instructions:  155000002 cycles:  260780102 heartbeat IPC: 0.49285 cumulative IPC: 0.28446 (Simulation time: 0 hr 3 min 27 sec) 
Heartbeat CPU  0 instructions:  156000000 cycles:  265861273 heartbeat IPC: 0.19680 cumulative IPC: 0.28222 (Simulation time: 0 hr 3 min 29 sec) 
Heartbeat CPU  0 instructions:  157000000 cycles:  269315872 heartbeat IPC: 0.28947 cumulative IPC: 0.28234 (Simulation time: 0 hr 3 min 31 sec) 
Heartbeat CPU  0 instructions:  158000003 cycles:  271416077 heartbeat IPC: 0.47615 cumulative IPC: 0.28434 (Simulation time: 0 hr 3 min 32 sec) 
Heartbeat CPU  0 instructions:  159000000 cycles:  273156651 heartbeat IPC: 0.57452 cumulative IPC: 0.28679 (Simulation time: 0 hr 3 min 33 sec) 
Heartbeat CPU  0 instructions:  160000000 cycles:  277829002 heartbeat IPC: 0.21403 cumulative IPC: 0.28518 (Simulation time: 0 hr 3 min 35 sec) 
Heartbeat CPU  0 instructions:  161000003 cycles:  281285230 heartbeat IPC: 0.28933 cumulative IPC: 0.28524 (Simulation time: 0 hr 3 min 37 sec) 
Heartbeat CPU  0 instructions:  162000001 cycles:  285113892 heartbeat IPC: 0.26119 cumulative IPC: 0.28482 (Simulation time: 0 hr 3 min 39 sec) 
Heartbeat CPU  0 instructions:  163000000 cycles:  288655100 heartbeat IPC: 0.28239 cumulative IPC: 0.28478 (Simulation time: 0 hr 3 min 41 sec) 
Heartbeat CPU  0 instructions:  164000000 cycles:  291164881 heartbeat IPC: 0.39844 cumulative IPC: 0.28606 (Simulation time: 0 hr 3 min 43 sec) 
Heartbeat CPU  0 instructions:  165000003 cycles:  296606245 heartbeat IPC: 0.18378 cumulative IPC: 0.28363 (Simulation time: 0 hr 3 min 46 sec) 
Heartbeat CPU  0 instructions:  166000000 cycles:  298952931 heartbeat IPC: 0.42613 cumulative IPC: 0.28507 (Simulation time: 0 hr 3 min 47 sec) 
Heartbeat CPU  0 instructions:  167000001 cycles:  300944080 heartbeat IPC: 0.50222 cumulative IPC: 0.28693 (Simulation time: 0 hr 3 min 48 sec) 
Heartbeat CPU  0 instructions:  168000000 cycles:  303456218 heartbeat IPC: 0.39807 cumulative IPC: 0.28811 (Simulation time: 0 hr 3 min 49 sec) 
Heartbeat CPU  0 instructions:  169000001 cycles:  307502715 heartbeat IPC: 0.24713 cumulative IPC: 0.28742 (Simulation time: 0 hr 3 min 51 sec) 
Heartbeat CPU  0 instructions:  170000002 cycles:  312201845 heartbeat IPC: 0.21281 cumulative IPC: 0.28599 (Simulation time: 0 hr 3 min 53 sec) 
Heartbeat CPU  0 instructions:  171000000 cycles:  314723108 heartbeat IPC: 0.39663 cumulative IPC: 0.28711 (Simulation time: 0 hr 3 min 55 sec) 
Heartbeat CPU  0 instructions:  172000000 cycles:  318189572 heartbeat IPC: 0.28848 cumulative IPC: 0.28713 (Simulation time: 0 hr 3 min 57 sec) 
Heartbeat CPU  0 instructions:  173000000 cycles:  321473239 heartbeat IPC: 0.30454 cumulative IPC: 0.28736 (Simulation time: 0 hr 3 min 59 sec) 
Heartbeat CPU  0 instructions:  174000000 cycles:  326377584 heartbeat IPC: 0.20390 cumulative IPC: 0.28578 (Simulation time: 0 hr 4 min 2 sec) 
Heartbeat CPU  0 instructions:  175000000 cycles:  328508273 heartbeat IPC: 0.46933 cumulative IPC: 0.28727 (Simulation time: 0 hr 4 min 3 sec) 
Heartbeat CPU  0 instructions:  176000000 cycles:  330399568 heartbeat IPC: 0.52874 cumulative IPC: 0.28901 (Simulation time: 0 hr 4 min 4 sec) 
Heartbeat CPU  0 instructions:  177000002 cycles:  333572510 heartbeat IPC: 0.31517 cumulative IPC: 0.28932 (Simulation time: 0 hr 4 min 5 sec) 
Heartbeat CPU  0 instructions:  178000001 cycles:  337094097 heartbeat IPC: 0.28396 cumulative IPC: 0.28925 (Simulation time: 0 hr 4 min 7 sec) 
Heartbeat CPU  0 instructions:  179000003 cycles:  342199955 heartbeat IPC: 0.19585 cumulative IPC: 0.28752 (Simulation time: 0 hr 4 min 10 sec) 
Heartbeat CPU  0 instructions:  180000000 cycles:  345336791 heartbeat IPC: 0.31879 cumulative IPC: 0.28787 (Simulation time: 0 hr 4 min 11 sec) 
Heartbeat CPU  0 instructions:  181000003 cycles:  347518075 heartbeat IPC: 0.45845 cumulative IPC: 0.28920 (Simulation time: 0 hr 4 min 13 sec) 
Heartbeat CPU  0 instructions:  182000001 cycles:  352393208 heartbeat IPC: 0.20512 cumulative IPC: 0.28776 (Simulation time: 0 hr 4 min 16 sec) 
Heartbeat CPU  0 instructions:  183000000 cycles:  356005763 heartbeat IPC: 0.27681 cumulative IPC: 0.28762 (Simulation time: 0 hr 4 min 18 sec) 
Heartbeat CPU  0 instructions:  184000000 cycles:  358109600 heartbeat IPC: 0.47532 cumulative IPC: 0.28898 (Simulation time: 0 hr 4 min 19 sec) 
Heartbeat CPU  0 instructions:  185000002 cycles:  359835276 heartbeat IPC: 0.57948 cumulative IPC: 0.29070 (Simulation time: 0 hr 4 min 20 sec) 
Heartbeat CPU  0 instructions:  186000001 cycles:  364347928 heartbeat IPC: 0.22160 cumulative IPC: 0.28965 (Simulation time: 0 hr 4 min 22 sec) 
Heartbeat CPU  0 instructions:  187000000 cycles:  367795780 heartbeat IPC: 0.29004 cumulative IPC: 0.28965 (Simulation time: 0 hr 4 min 24 sec) 
Heartbeat CPU  0 instructions:  188000000 cycles:  371585656 heartbeat IPC: 0.26386 cumulative IPC: 0.28933 (Simulation time: 0 hr 4 min 26 sec) 
Heartbeat CPU  0 instructions:  189000001 cycles:  375106678 heartbeat IPC: 0.28401 cumulative IPC: 0.28927 (Simulation time: 0 hr 4 min 28 sec) 
Heartbeat CPU  0 instructions:  190000001 cycles:  377244642 heartbeat IPC: 0.46773 cumulative IPC: 0.29050 (Simulation time: 0 hr 4 min 30 sec) 
Heartbeat CPU  0 instructions:  191000002 cycles:  382593739 heartbeat IPC: 0.18695 cumulative IPC: 0.28874 (Simulation time: 0 hr 4 min 33 sec) 
Heartbeat CPU  0 instructions:  192000000 cycles:  385500712 heartbeat IPC: 0.34400 cumulative IPC: 0.28925 (Simulation time: 0 hr 4 min 35 sec) 
Heartbeat CPU  0 instructions:  193000003 cycles:  387545494 heartbeat IPC: 0.48905 cumulative IPC: 0.29052 (Simulation time: 0 hr 4 min 36 sec) 
Heartbeat CPU  0 instructions:  194000001 cycles:  389617482 heartbeat IPC: 0.48263 cumulative IPC: 0.29176 (Simulation time: 0 hr 4 min 37 sec) 
Heartbeat CPU  0 instructions:  195000000 cycles:  393953891 heartbeat IPC: 0.23061 cumulative IPC: 0.29095 (Simulation time: 0 hr 4 min 39 sec) 
Heartbeat CPU  0 instructions:  196000000 cycles:  398128567 heartbeat IPC: 0.23954 cumulative IPC: 0.29030 (Simulation time: 0 hr 4 min 41 sec) 
Heartbeat CPU  0 instructions:  197000000 cycles:  401163519 heartbeat IPC: 0.32949 cumulative IPC: 0.29065 (Simulation time: 0 hr 4 min 43 sec) 
Heartbeat CPU  0 instructions:  198000000 cycles:  404712196 heartbeat IPC: 0.28180 cumulative IPC: 0.29056 (Simulation time: 0 hr 4 min 45 sec) 
Heartbeat CPU  0 instructions:  199000000 cycles:  407412341 heartbeat IPC: 0.37035 cumulative IPC: 0.29119 (Simulation time: 0 hr 4 min 47 sec) 
Heartbeat CPU  0 instructions:  200000000 cycles:  412872961 heartbeat IPC: 0.18313 cumulative IPC: 0.28949 (Simulation time: 0 hr 4 min 50 sec) 
Finished CPU 0 instructions: 100000000 cycles: 345439190 cumulative IPC: 0.28949 (Simulation time: 0 hr 4 min 50 sec) 

ChampSim completed all CPUs

[ROI Statistics]
Core_0_instructions 100000000
Core_0_cycles 345439190
Core_0_IPC 0.28949

Core_0_branch_prediction_accuracy 95.09858
Core_0_branch_MPKI 8.66907
Core_0_average_ROB_occupancy_at_mispredict 84.14326

Core_0_L1D_total_access 20428308
Core_0_L1D_total_hit 15199832
Core_0_L1D_total_miss 5228476
Core_0_L1D_loads 14897537
Core_0_L1D_load_hit 10497641
Core_0_L1D_load_miss 4399896
Core_0_L1D_RFOs 5530771
Core_0_L1D_RFO_hit 4702191
Core_0_L1D_RFO_miss 828580
Core_0_L1D_prefetches 0
Core_0_L1D_prefetch_hit 0
Core_0_L1D_prefetch_miss 0
Core_0_L1D_writebacks 0
Core_0_L1D_writeback_hit 0
Core_0_L1D_writeback_miss 0
Core_0_L1D_prefetch_requested 0
Core_0_L1D_prefetch_issued 0
Core_0_L1D_prefetch_useful 0
Core_0_L1D_prefetch_useless 0
Core_0_L1D_prefetch_late 0
Core_0_L1D_average_miss_latency 123.76123

Core_0_L1I_total_access 21117833
Core_0_L1I_total_hit 21117201
Core_0_L1I_total_miss 632
Core_0_L1I_loads 21117833
Core_0_L1I_load_hit 21117201
Core_0_L1I_load_miss 632
Core_0_L1I_RFOs 0
Core_0_L1I_RFO_hit 0
Core_0_L1I_RFO_miss 0
Core_0_L1I_prefetches 0
Core_0_L1I_prefetch_hit 0
Core_0_L1I_prefetch_miss 0
Core_0_L1I_writebacks 0
Core_0_L1I_writeback_hit 0
Core_0_L1I_writeback_miss 0
Core_0_L1I_prefetch_requested 0
Core_0_L1I_prefetch_issued 0
Core_0_L1I_prefetch_useful 0
Core_0_L1I_prefetch_useless 0
Core_0_L1I_prefetch_late 0
Core_0_L1I_average_miss_latency 256.04589

Core_0_L2C_total_access 7609226
Core_0_L2C_total_hit 3785802
Core_0_L2C_total_miss 3823424
Core_0_L2C_loads 4399943
Core_0_L2C_load_hit 1249799
Core_0_L2C_load_miss 3150144
Core_0_L2C_RFOs 828502
Core_0_L2C_RFO_hit 155318
Core_0_L2C_RFO_miss 673184
Core_0_L2C_prefetches 0
Core_0_L2C_prefetch_hit 0
Core_0_L2C_prefetch_miss 0
Core_0_L2C_writebacks 2380781
Core_0_L2C_writeback_hit 2380685
Core_0_L2C_writeback_miss 96
Core_0_L2C_prefetch_requested 0
Core_0_L2C_prefetch_issued 0
Core_0_L2C_prefetch_useful 0
Core_0_L2C_prefetch_useless 0
Core_0_L2C_prefetch_late 0
Core_0_L2C_average_miss_latency 148.90135

Core_0_LLC_total_access 5393216
Core_0_LLC_total_hit 2447293
Core_0_LLC_total_miss 2945923
Core_0_LLC_loads 3150136
Core_0_LLC_load_hit 1242705
Core_0_LLC_load_miss 1907431
Core_0_LLC_RFOs 673183
Core_0_LLC_RFO_hit 250618
Core_0_LLC_RFO_miss 422565
Core_0_LLC_prefetches 0
Core_0_LLC_prefetch_hit 0
Core_0_LLC_prefetch_miss 0
Core_0_LLC_writebacks 1569897
Core_0_LLC_writeback_hit 953970
Core_0_LLC_writeback_miss 615927
Core_0_LLC_prefetch_requested 0
Core_0_LLC_prefetch_issued 0
Core_0_LLC_prefetch_useful 0
Core_0_LLC_prefetch_useless 0
Core_0_LLC_prefetch_late 0
Core_0_LLC_average_miss_latency 153.18085

Core_0_major_page_fault 0
Core_0_minor_page_fault 12935

Channel_0_RQ_row_buffer_hit 713675
Channel_0_RQ_row_buffer_miss 1616048
Channel_0_WQ_row_buffer_hit 346651
Channel_0_WQ_row_buffer_miss 328377
Channel_0_WQ_full 1469
Channel_0_dbus_congested 1052334

avg_congested_cycle 10
