*************************************************
   ChampSim Multicore Out-of-Order Simulator
   Last compiled: Dec 22 2023 22:29:42
*************************************************

trace_0 ./test_trace/436.cactusADM-1804B.champsimtrace.xz
Initialize SHIP state
warmup_instructions 100000000
simulation_instructions 100000000
champsim_seed 271

num_cpus 1
cpu_freq 4000
dram_io_freq 2400
page_size 4096
block_size 64
max_read_per_cycle 8
max_fill_per_cycle 1
dram_channels 1
dram_ranks 1
dram_banks 8
dram_rows 65536
dram_columns 128
dram_row_size 8
dram_size 4096
dram_pages 1048576

fetch_width 6
decode_width 6
exec_width 4
lq_width 2
sq_width 2
retire_width 4
scheduler_size 128
branch_mispredict_penalty 20
rob_size 256
lq_size 72
sq_size 56
num_instr_destinations_sparc 4
num_instr_destinations 2
num_instr_sources 4

itlb_set 16
itlb_way 8
itlb_rq_size 16
itlb_wq_size 16
itlb_pq_size 0
itlb_mshr_size 8
itlb_latency 1

dtlb_set 16
dtlb_way 4
dtlb_rq_size 16
dtlb_wq_size 16
dtlb_pq_size 0
dtlb_mshr_size 8
dtlb_latency 1

stlb_set 128
stlb_way 12
stlb_rq_size 32
stlb_wq_size 32
stlb_pq_size 0
stlb_mshr_size 16
stlb_latency 8

l1i_size 32
l1i_set 64
l1i_way 8
l1i_rq_size 64
l1i_wq_size 64
l1i_pq_size 8
l1i_mshr_size 8
l1i_latency 1

l1d_size 32
l1d_set 64
l1d_way 8
l1d_rq_size 64
l1d_wq_size 64
l1d_pq_size 8
l1d_mshr_size 16
l1d_latency 4

l2c_size 512
l2c_set 1024
l2c_way 8
l2c_rq_size 32
l2c_wq_size 32
l2c_pq_size 16
l2c_mshr_size 32
l2c_latency 10

llc_size 2048
llc_set 2048
llc_way 16
llc_rq_size 32
llc_wq_size 32
llc_pq_size 32
llc_mshr_size 64
llc_latency 20

dram_channel_width 8
dram_wq_size 64
dram_rq_size 64
tRP 15
tRCD 15
tCAS 12.5
dram_dbus_turn_around_time 30
dram_write_high_wm 56
dram_write_low_wm 48
min_dram_writes_per_switch 16
dram_mtps 2400
dram_dbus_return_time 13


Heartbeat CPU  0 instructions:    1000003 cycles:     702358 heartbeat IPC: 1.42378 cumulative IPC: 1.42378 (Simulation time: 0 hr 0 min 3 sec) 
Heartbeat CPU  0 instructions:    2000000 cycles:    1404572 heartbeat IPC: 1.42406 cumulative IPC: 1.42392 (Simulation time: 0 hr 0 min 5 sec) 
Heartbeat CPU  0 instructions:    3000000 cycles:    2106946 heartbeat IPC: 1.42374 cumulative IPC: 1.42386 (Simulation time: 0 hr 0 min 7 sec) 
Heartbeat CPU  0 instructions:    4000000 cycles:    2809279 heartbeat IPC: 1.42383 cumulative IPC: 1.42385 (Simulation time: 0 hr 0 min 9 sec) 
Heartbeat CPU  0 instructions:    5000000 cycles:    3511467 heartbeat IPC: 1.42412 cumulative IPC: 1.42391 (Simulation time: 0 hr 0 min 10 sec) 
Heartbeat CPU  0 instructions:    6000000 cycles:    4213839 heartbeat IPC: 1.42375 cumulative IPC: 1.42388 (Simulation time: 0 hr 0 min 12 sec) 
Heartbeat CPU  0 instructions:    7000001 cycles:    4916238 heartbeat IPC: 1.42369 cumulative IPC: 1.42385 (Simulation time: 0 hr 0 min 14 sec) 
Heartbeat CPU  0 instructions:    8000000 cycles:    5618388 heartbeat IPC: 1.42420 cumulative IPC: 1.42390 (Simulation time: 0 hr 0 min 16 sec) 
Heartbeat CPU  0 instructions:    9000001 cycles:    6320823 heartbeat IPC: 1.42362 cumulative IPC: 1.42387 (Simulation time: 0 hr 0 min 18 sec) 
Heartbeat CPU  0 instructions:   10000000 cycles:    7023046 heartbeat IPC: 1.42405 cumulative IPC: 1.42388 (Simulation time: 0 hr 0 min 20 sec) 
Heartbeat CPU  0 instructions:   11000002 cycles:    7725291 heartbeat IPC: 1.42401 cumulative IPC: 1.42389 (Simulation time: 0 hr 0 min 22 sec) 
Heartbeat CPU  0 instructions:   12000000 cycles:    8427446 heartbeat IPC: 1.42418 cumulative IPC: 1.42392 (Simulation time: 0 hr 0 min 24 sec) 
Heartbeat CPU  0 instructions:   13000000 cycles:    9129995 heartbeat IPC: 1.42339 cumulative IPC: 1.42388 (Simulation time: 0 hr 0 min 25 sec) 
Heartbeat CPU  0 instructions:   14000002 cycles:    9832234 heartbeat IPC: 1.42402 cumulative IPC: 1.42389 (Simulation time: 0 hr 0 min 27 sec) 
Heartbeat CPU  0 instructions:   15000002 cycles:   10534154 heartbeat IPC: 1.42466 cumulative IPC: 1.42394 (Simulation time: 0 hr 0 min 29 sec) 
Heartbeat CPU  0 instructions:   16000000 cycles:   11236702 heartbeat IPC: 1.42339 cumulative IPC: 1.42391 (Simulation time: 0 hr 0 min 31 sec) 
Heartbeat CPU  0 instructions:   17000000 cycles:   11939222 heartbeat IPC: 1.42345 cumulative IPC: 1.42388 (Simulation time: 0 hr 0 min 33 sec) 
Heartbeat CPU  0 instructions:   18000001 cycles:   12602182 heartbeat IPC: 1.50839 cumulative IPC: 1.42832 (Simulation time: 0 hr 0 min 35 sec) 
Heartbeat CPU  0 instructions:   19000000 cycles:   13240581 heartbeat IPC: 1.56642 cumulative IPC: 1.43498 (Simulation time: 0 hr 0 min 37 sec) 
Heartbeat CPU  0 instructions:   20000000 cycles:   13943096 heartbeat IPC: 1.42346 cumulative IPC: 1.43440 (Simulation time: 0 hr 0 min 39 sec) 
Heartbeat CPU  0 instructions:   21000000 cycles:   14645478 heartbeat IPC: 1.42373 cumulative IPC: 1.43389 (Simulation time: 0 hr 0 min 40 sec) 
Heartbeat CPU  0 instructions:   22000002 cycles:   15347783 heartbeat IPC: 1.42389 cumulative IPC: 1.43343 (Simulation time: 0 hr 0 min 42 sec) 
Heartbeat CPU  0 instructions:   23000001 cycles:   16050172 heartbeat IPC: 1.42371 cumulative IPC: 1.43301 (Simulation time: 0 hr 0 min 44 sec) 
Heartbeat CPU  0 instructions:   24000000 cycles:   16752269 heartbeat IPC: 1.42430 cumulative IPC: 1.43264 (Simulation time: 0 hr 0 min 46 sec) 
Heartbeat CPU  0 instructions:   25000001 cycles:   17454599 heartbeat IPC: 1.42383 cumulative IPC: 1.43229 (Simulation time: 0 hr 0 min 48 sec) 
Heartbeat CPU  0 instructions:   26000003 cycles:   18157317 heartbeat IPC: 1.42305 cumulative IPC: 1.43193 (Simulation time: 0 hr 0 min 50 sec) 
Heartbeat CPU  0 instructions:   27000003 cycles:   18859476 heartbeat IPC: 1.42418 cumulative IPC: 1.43164 (Simulation time: 0 hr 0 min 52 sec) 
Heartbeat CPU  0 instructions:   28000000 cycles:   19561592 heartbeat IPC: 1.42426 cumulative IPC: 1.43138 (Simulation time: 0 hr 0 min 54 sec) 
Heartbeat CPU  0 instructions:   29000000 cycles:   20264011 heartbeat IPC: 1.42365 cumulative IPC: 1.43111 (Simulation time: 0 hr 0 min 56 sec) 
Heartbeat CPU  0 instructions:   30000003 cycles:   20966419 heartbeat IPC: 1.42368 cumulative IPC: 1.43086 (Simulation time: 0 hr 0 min 58 sec) 
Heartbeat CPU  0 instructions:   31000003 cycles:   21668293 heartbeat IPC: 1.42476 cumulative IPC: 1.43066 (Simulation time: 0 hr 1 min 0 sec) 
Heartbeat CPU  0 instructions:   32000000 cycles:   22370391 heartbeat IPC: 1.42430 cumulative IPC: 1.43046 (Simulation time: 0 hr 1 min 2 sec) 
Heartbeat CPU  0 instructions:   33000001 cycles:   23073124 heartbeat IPC: 1.42302 cumulative IPC: 1.43024 (Simulation time: 0 hr 1 min 3 sec) 
Heartbeat CPU  0 instructions:   34000000 cycles:   23775301 heartbeat IPC: 1.42414 cumulative IPC: 1.43006 (Simulation time: 0 hr 1 min 5 sec) 
Heartbeat CPU  0 instructions:   35000001 cycles:   24477565 heartbeat IPC: 1.42397 cumulative IPC: 1.42988 (Simulation time: 0 hr 1 min 7 sec) 
Heartbeat CPU  0 instructions:   36000000 cycles:   25179763 heartbeat IPC: 1.42410 cumulative IPC: 1.42972 (Simulation time: 0 hr 1 min 9 sec) 
Heartbeat CPU  0 instructions:   37000000 cycles:   25882295 heartbeat IPC: 1.42342 cumulative IPC: 1.42955 (Simulation time: 0 hr 1 min 11 sec) 
Heartbeat CPU  0 instructions:   38000001 cycles:   26584543 heartbeat IPC: 1.42400 cumulative IPC: 1.42940 (Simulation time: 0 hr 1 min 13 sec) 
Heartbeat CPU  0 instructions:   39000000 cycles:   27286859 heartbeat IPC: 1.42386 cumulative IPC: 1.42926 (Simulation time: 0 hr 1 min 15 sec) 
Heartbeat CPU  0 instructions:   40000000 cycles:   27989022 heartbeat IPC: 1.42417 cumulative IPC: 1.42913 (Simulation time: 0 hr 1 min 17 sec) 
Heartbeat CPU  0 instructions:   41000000 cycles:   28598925 heartbeat IPC: 1.63961 cumulative IPC: 1.43362 (Simulation time: 0 hr 1 min 19 sec) 
Heartbeat CPU  0 instructions:   42000002 cycles:   29290832 heartbeat IPC: 1.44528 cumulative IPC: 1.43390 (Simulation time: 0 hr 1 min 21 sec) 
Heartbeat CPU  0 instructions:   43000002 cycles:   29993258 heartbeat IPC: 1.42364 cumulative IPC: 1.43366 (Simulation time: 0 hr 1 min 22 sec) 
Heartbeat CPU  0 instructions:   44000000 cycles:   30695732 heartbeat IPC: 1.42354 cumulative IPC: 1.43342 (Simulation time: 0 hr 1 min 24 sec) 
Heartbeat CPU  0 instructions:   45000003 cycles:   31397993 heartbeat IPC: 1.42398 cumulative IPC: 1.43321 (Simulation time: 0 hr 1 min 26 sec) 
Heartbeat CPU  0 instructions:   46000003 cycles:   32100241 heartbeat IPC: 1.42400 cumulative IPC: 1.43301 (Simulation time: 0 hr 1 min 28 sec) 
Heartbeat CPU  0 instructions:   47000000 cycles:   32802460 heartbeat IPC: 1.42405 cumulative IPC: 1.43282 (Simulation time: 0 hr 1 min 30 sec) 
Heartbeat CPU  0 instructions:   48000000 cycles:   33505217 heartbeat IPC: 1.42297 cumulative IPC: 1.43261 (Simulation time: 0 hr 1 min 32 sec) 
Heartbeat CPU  0 instructions:   49000000 cycles:   34207241 heartbeat IPC: 1.42445 cumulative IPC: 1.43245 (Simulation time: 0 hr 1 min 34 sec) 
Heartbeat CPU  0 instructions:   50000000 cycles:   34909662 heartbeat IPC: 1.42365 cumulative IPC: 1.43227 (Simulation time: 0 hr 1 min 36 sec) 
Heartbeat CPU  0 instructions:   51000000 cycles:   35612300 heartbeat IPC: 1.42321 cumulative IPC: 1.43209 (Simulation time: 0 hr 1 min 38 sec) 
Heartbeat CPU  0 instructions:   52000000 cycles:   36314606 heartbeat IPC: 1.42388 cumulative IPC: 1.43193 (Simulation time: 0 hr 1 min 39 sec) 
Heartbeat CPU  0 instructions:   53000000 cycles:   37017095 heartbeat IPC: 1.42351 cumulative IPC: 1.43177 (Simulation time: 0 hr 1 min 41 sec) 
Heartbeat CPU  0 instructions:   54000001 cycles:   37719330 heartbeat IPC: 1.42403 cumulative IPC: 1.43163 (Simulation time: 0 hr 1 min 43 sec) 
Heartbeat CPU  0 instructions:   55000001 cycles:   38421713 heartbeat IPC: 1.42372 cumulative IPC: 1.43148 (Simulation time: 0 hr 1 min 45 sec) 
Heartbeat CPU  0 instructions:   56000000 cycles:   39124336 heartbeat IPC: 1.42324 cumulative IPC: 1.43133 (Simulation time: 0 hr 1 min 47 sec) 
Heartbeat CPU  0 instructions:   57000000 cycles:   39826935 heartbeat IPC: 1.42329 cumulative IPC: 1.43119 (Simulation time: 0 hr 1 min 49 sec) 
Heartbeat CPU  0 instructions:   58000002 cycles:   40529281 heartbeat IPC: 1.42380 cumulative IPC: 1.43106 (Simulation time: 0 hr 1 min 51 sec) 
Heartbeat CPU  0 instructions:   59000000 cycles:   41231588 heartbeat IPC: 1.42388 cumulative IPC: 1.43094 (Simulation time: 0 hr 1 min 53 sec) 
Heartbeat CPU  0 instructions:   60000000 cycles:   41934180 heartbeat IPC: 1.42330 cumulative IPC: 1.43081 (Simulation time: 0 hr 1 min 55 sec) 
Heartbeat CPU  0 instructions:   61000000 cycles:   42636519 heartbeat IPC: 1.42381 cumulative IPC: 1.43070 (Simulation time: 0 hr 1 min 57 sec) 
Heartbeat CPU  0 instructions:   62000002 cycles:   43338800 heartbeat IPC: 1.42393 cumulative IPC: 1.43059 (Simulation time: 0 hr 1 min 59 sec) 
Heartbeat CPU  0 instructions:   63000000 cycles:   43988833 heartbeat IPC: 1.53838 cumulative IPC: 1.43218 (Simulation time: 0 hr 2 min 1 sec) 
Heartbeat CPU  0 instructions:   64000000 cycles:   44642377 heartbeat IPC: 1.53012 cumulative IPC: 1.43362 (Simulation time: 0 hr 2 min 2 sec) 
Heartbeat CPU  0 instructions:   65000000 cycles:   45344511 heartbeat IPC: 1.42423 cumulative IPC: 1.43347 (Simulation time: 0 hr 2 min 4 sec) 
Heartbeat CPU  0 instructions:   66000001 cycles:   46046659 heartbeat IPC: 1.42420 cumulative IPC: 1.43333 (Simulation time: 0 hr 2 min 6 sec) 
Heartbeat CPU  0 instructions:   67000002 cycles:   46748836 heartbeat IPC: 1.42414 cumulative IPC: 1.43319 (Simulation time: 0 hr 2 min 8 sec) 
Heartbeat CPU  0 instructions:   68000000 cycles:   47451272 heartbeat IPC: 1.42361 cumulative IPC: 1.43305 (Simulation time: 0 hr 2 min 10 sec) 
Heartbeat CPU  0 instructions:   69000000 cycles:   48153492 heartbeat IPC: 1.42406 cumulative IPC: 1.43292 (Simulation time: 0 hr 2 min 12 sec) 
Heartbeat CPU  0 instructions:   70000002 cycles:   48855688 heartbeat IPC: 1.42411 cumulative IPC: 1.43279 (Simulation time: 0 hr 2 min 14 sec) 
Heartbeat CPU  0 instructions:   71000003 cycles:   49558327 heartbeat IPC: 1.42321 cumulative IPC: 1.43266 (Simulation time: 0 hr 2 min 16 sec) 
Heartbeat CPU  0 instructions:   72000000 cycles:   50260455 heartbeat IPC: 1.42424 cumulative IPC: 1.43254 (Simulation time: 0 hr 2 min 18 sec) 
Heartbeat CPU  0 instructions:   73000001 cycles:   50962583 heartbeat IPC: 1.42424 cumulative IPC: 1.43242 (Simulation time: 0 hr 2 min 20 sec) 
Heartbeat CPU  0 instructions:   74000003 cycles:   51664997 heartbeat IPC: 1.42366 cumulative IPC: 1.43230 (Simulation time: 0 hr 2 min 22 sec) 
Heartbeat CPU  0 instructions:   75000002 cycles:   52367734 heartbeat IPC: 1.42301 cumulative IPC: 1.43218 (Simulation time: 0 hr 2 min 23 sec) 
Heartbeat CPU  0 instructions:   76000000 cycles:   53069939 heartbeat IPC: 1.42408 cumulative IPC: 1.43207 (Simulation time: 0 hr 2 min 25 sec) 
Heartbeat CPU  0 instructions:   77000003 cycles:   53772620 heartbeat IPC: 1.42313 cumulative IPC: 1.43196 (Simulation time: 0 hr 2 min 27 sec) 
Heartbeat CPU  0 instructions:   78000001 cycles:   54475192 heartbeat IPC: 1.42334 cumulative IPC: 1.43184 (Simulation time: 0 hr 2 min 29 sec) 
Heartbeat CPU  0 instructions:   79000001 cycles:   55177122 heartbeat IPC: 1.42464 cumulative IPC: 1.43175 (Simulation time: 0 hr 2 min 31 sec) 
Heartbeat CPU  0 instructions:   80000000 cycles:   55879191 heartbeat IPC: 1.42436 cumulative IPC: 1.43166 (Simulation time: 0 hr 2 min 33 sec) 
Heartbeat CPU  0 instructions:   81000002 cycles:   56581632 heartbeat IPC: 1.42361 cumulative IPC: 1.43156 (Simulation time: 0 hr 2 min 35 sec) 
Heartbeat CPU  0 instructions:   82000000 cycles:   57283921 heartbeat IPC: 1.42391 cumulative IPC: 1.43147 (Simulation time: 0 hr 2 min 37 sec) 
Heartbeat CPU  0 instructions:   83000001 cycles:   57986218 heartbeat IPC: 1.42390 cumulative IPC: 1.43137 (Simulation time: 0 hr 2 min 39 sec) 
Heartbeat CPU  0 instructions:   84000000 cycles:   58688520 heartbeat IPC: 1.42389 cumulative IPC: 1.43129 (Simulation time: 0 hr 2 min 41 sec) 
Heartbeat CPU  0 instructions:   85000000 cycles:   59377857 heartbeat IPC: 1.45067 cumulative IPC: 1.43151 (Simulation time: 0 hr 2 min 43 sec) 
Heartbeat CPU  0 instructions:   86000002 cycles:   59991350 heartbeat IPC: 1.63001 cumulative IPC: 1.43354 (Simulation time: 0 hr 2 min 45 sec) 
Heartbeat CPU  0 instructions:   87000002 cycles:   60693808 heartbeat IPC: 1.42357 cumulative IPC: 1.43342 (Simulation time: 0 hr 2 min 47 sec) 
Heartbeat CPU  0 instructions:   88000000 cycles:   61396386 heartbeat IPC: 1.42333 cumulative IPC: 1.43331 (Simulation time: 0 hr 2 min 49 sec) 
Heartbeat CPU  0 instructions:   89000001 cycles:   62098379 heartbeat IPC: 1.42452 cumulative IPC: 1.43321 (Simulation time: 0 hr 2 min 51 sec) 
Heartbeat CPU  0 instructions:   90000003 cycles:   62800763 heartbeat IPC: 1.42373 cumulative IPC: 1.43310 (Simulation time: 0 hr 2 min 53 sec) 
Heartbeat CPU  0 instructions:   91000003 cycles:   63503188 heartbeat IPC: 1.42364 cumulative IPC: 1.43300 (Simulation time: 0 hr 2 min 55 sec) 
Heartbeat CPU  0 instructions:   92000000 cycles:   64205474 heartbeat IPC: 1.42392 cumulative IPC: 1.43290 (Simulation time: 0 hr 2 min 57 sec) 
Heartbeat CPU  0 instructions:   93000002 cycles:   64907851 heartbeat IPC: 1.42374 cumulative IPC: 1.43280 (Simulation time: 0 hr 2 min 59 sec) 
Heartbeat CPU  0 instructions:   94000002 cycles:   65609888 heartbeat IPC: 1.42443 cumulative IPC: 1.43271 (Simulation time: 0 hr 3 min 1 sec) 
Heartbeat CPU  0 instructions:   95000003 cycles:   66312141 heartbeat IPC: 1.42399 cumulative IPC: 1.43262 (Simulation time: 0 hr 3 min 2 sec) 
Heartbeat CPU  0 instructions:   96000000 cycles:   67014435 heartbeat IPC: 1.42390 cumulative IPC: 1.43253 (Simulation time: 0 hr 3 min 4 sec) 
Heartbeat CPU  0 instructions:   97000000 cycles:   67716778 heartbeat IPC: 1.42381 cumulative IPC: 1.43244 (Simulation time: 0 hr 3 min 6 sec) 
Heartbeat CPU  0 instructions:   98000002 cycles:   68419021 heartbeat IPC: 1.42401 cumulative IPC: 1.43235 (Simulation time: 0 hr 3 min 8 sec) 
Heartbeat CPU  0 instructions:   99000003 cycles:   69121296 heartbeat IPC: 1.42395 cumulative IPC: 1.43226 (Simulation time: 0 hr 3 min 10 sec) 
Heartbeat CPU  0 instructions:  100000000 cycles:   69823695 heartbeat IPC: 1.42369 cumulative IPC: 1.43218 (Simulation time: 0 hr 3 min 12 sec) 

Warmup complete CPU  0 instructions:  100000001 cycles:   69823715 (Simulation time: 0 hr 3 min 12 sec) 

Heartbeat CPU  0 instructions:  101000000 cycles:   71896237 heartbeat IPC: 0.48250 cumulative IPC: 0.48250 (Simulation time: 0 hr 3 min 15 sec) 
Heartbeat CPU  0 instructions:  102000003 cycles:   73808157 heartbeat IPC: 0.52304 cumulative IPC: 0.50195 (Simulation time: 0 hr 3 min 17 sec) 
Heartbeat CPU  0 instructions:  103000003 cycles:   75812581 heartbeat IPC: 0.49890 cumulative IPC: 0.50093 (Simulation time: 0 hr 3 min 20 sec) 
Heartbeat CPU  0 instructions:  104000000 cycles:   77853828 heartbeat IPC: 0.48990 cumulative IPC: 0.49812 (Simulation time: 0 hr 3 min 23 sec) 
Heartbeat CPU  0 instructions:  105000002 cycles:   79845224 heartbeat IPC: 0.50216 cumulative IPC: 0.49893 (Simulation time: 0 hr 3 min 25 sec) 
Heartbeat CPU  0 instructions:  106000000 cycles:   81794711 heartbeat IPC: 0.51295 cumulative IPC: 0.50121 (Simulation time: 0 hr 3 min 28 sec) 
Heartbeat CPU  0 instructions:  107000003 cycles:   83860307 heartbeat IPC: 0.48412 cumulative IPC: 0.49870 (Simulation time: 0 hr 3 min 30 sec) 
Heartbeat CPU  0 instructions:  108000000 cycles:   95465946 heartbeat IPC: 0.08616 cumulative IPC: 0.31199 (Simulation time: 0 hr 3 min 33 sec) 
Heartbeat CPU  0 instructions:  109000003 cycles:  102821861 heartbeat IPC: 0.13595 cumulative IPC: 0.27274 (Simulation time: 0 hr 3 min 36 sec) 
Heartbeat CPU  0 instructions:  110000001 cycles:  104987856 heartbeat IPC: 0.46168 cumulative IPC: 0.28438 (Simulation time: 0 hr 3 min 38 sec) 
Heartbeat CPU  0 instructions:  111000000 cycles:  107133449 heartbeat IPC: 0.46607 cumulative IPC: 0.29483 (Simulation time: 0 hr 3 min 40 sec) 
Heartbeat CPU  0 instructions:  112000000 cycles:  109151900 heartbeat IPC: 0.49543 cumulative IPC: 0.30512 (Simulation time: 0 hr 3 min 43 sec) 
Heartbeat CPU  0 instructions:  113000000 cycles:  111252847 heartbeat IPC: 0.47598 cumulative IPC: 0.31379 (Simulation time: 0 hr 3 min 45 sec) 
Heartbeat CPU  0 instructions:  114000000 cycles:  113402863 heartbeat IPC: 0.46511 cumulative IPC: 0.32125 (Simulation time: 0 hr 3 min 47 sec) 
Heartbeat CPU  0 instructions:  115000001 cycles:  115435754 heartbeat IPC: 0.49191 cumulative IPC: 0.32886 (Simulation time: 0 hr 3 min 50 sec) 
Heartbeat CPU  0 instructions:  116000000 cycles:  117446047 heartbeat IPC: 0.49744 cumulative IPC: 0.33598 (Simulation time: 0 hr 3 min 52 sec) 
Heartbeat CPU  0 instructions:  117000003 cycles:  119557827 heartbeat IPC: 0.47354 cumulative IPC: 0.34182 (Simulation time: 0 hr 3 min 54 sec) 
Heartbeat CPU  0 instructions:  118000002 cycles:  121649583 heartbeat IPC: 0.47807 cumulative IPC: 0.34732 (Simulation time: 0 hr 3 min 57 sec) 
Heartbeat CPU  0 instructions:  119000002 cycles:  123589932 heartbeat IPC: 0.51537 cumulative IPC: 0.35338 (Simulation time: 0 hr 3 min 59 sec) 
Heartbeat CPU  0 instructions:  120000000 cycles:  125657671 heartbeat IPC: 0.48362 cumulative IPC: 0.35820 (Simulation time: 0 hr 4 min 1 sec) 
Heartbeat CPU  0 instructions:  121000003 cycles:  127735536 heartbeat IPC: 0.48126 cumulative IPC: 0.36262 (Simulation time: 0 hr 4 min 3 sec) 
Heartbeat CPU  0 instructions:  122000000 cycles:  129677047 heartbeat IPC: 0.51506 cumulative IPC: 0.36757 (Simulation time: 0 hr 4 min 5 sec) 
Heartbeat CPU  0 instructions:  123000002 cycles:  131689888 heartbeat IPC: 0.49681 cumulative IPC: 0.37177 (Simulation time: 0 hr 4 min 7 sec) 
Heartbeat CPU  0 instructions:  124000000 cycles:  133771222 heartbeat IPC: 0.48046 cumulative IPC: 0.37531 (Simulation time: 0 hr 4 min 10 sec) 
Heartbeat CPU  0 instructions:  125000000 cycles:  135793147 heartbeat IPC: 0.49458 cumulative IPC: 0.37896 (Simulation time: 0 hr 4 min 12 sec) 
Heartbeat CPU  0 instructions:  126000002 cycles:  137749062 heartbeat IPC: 0.51127 cumulative IPC: 0.38277 (Simulation time: 0 hr 4 min 14 sec) 
Heartbeat CPU  0 instructions:  127000002 cycles:  139920037 heartbeat IPC: 0.46062 cumulative IPC: 0.38518 (Simulation time: 0 hr 4 min 16 sec) 
Heartbeat CPU  0 instructions:  128000000 cycles:  141985094 heartbeat IPC: 0.48425 cumulative IPC: 0.38802 (Simulation time: 0 hr 4 min 18 sec) 
Heartbeat CPU  0 instructions:  129000001 cycles:  143876985 heartbeat IPC: 0.52857 cumulative IPC: 0.39161 (Simulation time: 0 hr 4 min 20 sec) 
Heartbeat CPU  0 instructions:  130000000 cycles:  149837218 heartbeat IPC: 0.16778 cumulative IPC: 0.37494 (Simulation time: 0 hr 4 min 22 sec) 
Heartbeat CPU  0 instructions:  131000003 cycles:  162970283 heartbeat IPC: 0.07614 cumulative IPC: 0.33281 (Simulation time: 0 hr 4 min 25 sec) 
Heartbeat CPU  0 instructions:  132000000 cycles:  165013837 heartbeat IPC: 0.48934 cumulative IPC: 0.33617 (Simulation time: 0 hr 4 min 28 sec) 
Heartbeat CPU  0 instructions:  133000000 cycles:  167119376 heartbeat IPC: 0.47494 cumulative IPC: 0.33917 (Simulation time: 0 hr 4 min 30 sec) 
Heartbeat CPU  0 instructions:  134000000 cycles:  169276496 heartbeat IPC: 0.46358 cumulative IPC: 0.34187 (Simulation time: 0 hr 4 min 32 sec) 
Heartbeat CPU  0 instructions:  135000000 cycles:  171365058 heartbeat IPC: 0.47880 cumulative IPC: 0.34469 (Simulation time: 0 hr 4 min 34 sec) 
Heartbeat CPU  0 instructions:  136000000 cycles:  173354446 heartbeat IPC: 0.50267 cumulative IPC: 0.34772 (Simulation time: 0 hr 4 min 36 sec) 
Heartbeat CPU  0 instructions:  137000002 cycles:  175465282 heartbeat IPC: 0.47375 cumulative IPC: 0.35024 (Simulation time: 0 hr 4 min 38 sec) 
Heartbeat CPU  0 instructions:  138000000 cycles:  177565367 heartbeat IPC: 0.47617 cumulative IPC: 0.35270 (Simulation time: 0 hr 4 min 40 sec) 
Heartbeat CPU  0 instructions:  139000001 cycles:  179503729 heartbeat IPC: 0.51590 cumulative IPC: 0.35558 (Simulation time: 0 hr 4 min 43 sec) 
Heartbeat CPU  0 instructions:  140000000 cycles:  181581277 heartbeat IPC: 0.48134 cumulative IPC: 0.35792 (Simulation time: 0 hr 4 min 45 sec) 
Heartbeat CPU  0 instructions:  141000000 cycles:  183670372 heartbeat IPC: 0.47868 cumulative IPC: 0.36013 (Simulation time: 0 hr 4 min 47 sec) 
Heartbeat CPU  0 instructions:  142000001 cycles:  185639581 heartbeat IPC: 0.50782 cumulative IPC: 0.36264 (Simulation time: 0 hr 4 min 49 sec) 
Heartbeat CPU  0 instructions:  143000001 cycles:  187628704 heartbeat IPC: 0.50273 cumulative IPC: 0.36501 (Simulation time: 0 hr 4 min 53 sec) 
Heartbeat CPU  0 instructions:  144000000 cycles:  189725243 heartbeat IPC: 0.47698 cumulative IPC: 0.36697 (Simulation time: 0 hr 4 min 55 sec) 
Heartbeat CPU  0 instructions:  145000000 cycles:  191767073 heartbeat IPC: 0.48976 cumulative IPC: 0.36902 (Simulation time: 0 hr 4 min 58 sec) 
Heartbeat CPU  0 instructions:  146000002 cycles:  193725849 heartbeat IPC: 0.51052 cumulative IPC: 0.37126 (Simulation time: 0 hr 5 min 0 sec) 
Heartbeat CPU  0 instructions:  147000003 cycles:  195792501 heartbeat IPC: 0.48387 cumulative IPC: 0.37311 (Simulation time: 0 hr 5 min 3 sec) 
Heartbeat CPU  0 instructions:  148000000 cycles:  197868464 heartbeat IPC: 0.48170 cumulative IPC: 0.37487 (Simulation time: 0 hr 5 min 5 sec) 
Heartbeat CPU  0 instructions:  149000002 cycles:  199744797 heartbeat IPC: 0.53296 cumulative IPC: 0.37715 (Simulation time: 0 hr 5 min 8 sec) 
Heartbeat CPU  0 instructions:  150000003 cycles:  201771600 heartbeat IPC: 0.49339 cumulative IPC: 0.37894 (Simulation time: 0 hr 5 min 10 sec) 
Heartbeat CPU  0 instructions:  151000003 cycles:  203815734 heartbeat IPC: 0.48920 cumulative IPC: 0.38062 (Simulation time: 0 hr 5 min 13 sec) 
Heartbeat CPU  0 instructions:  152000000 cycles:  205764330 heartbeat IPC: 0.51319 cumulative IPC: 0.38252 (Simulation time: 0 hr 5 min 15 sec) 
Heartbeat CPU  0 instructions:  153000003 cycles:  219543202 heartbeat IPC: 0.07258 cumulative IPC: 0.35400 (Simulation time: 0 hr 5 min 18 sec) 
Heartbeat CPU  0 instructions:  154000000 cycles:  224976171 heartbeat IPC: 0.18406 cumulative IPC: 0.34804 (Simulation time: 0 hr 5 min 21 sec) 
Heartbeat CPU  0 instructions:  155000000 cycles:  227124326 heartbeat IPC: 0.46552 cumulative IPC: 0.34965 (Simulation time: 0 hr 5 min 24 sec) 
Heartbeat CPU  0 instructions:  156000000 cycles:  229124812 heartbeat IPC: 0.49988 cumulative IPC: 0.35154 (Simulation time: 0 hr 5 min 26 sec) 
Heartbeat CPU  0 instructions:  157000001 cycles:  231268747 heartbeat IPC: 0.46643 cumulative IPC: 0.35306 (Simulation time: 0 hr 5 min 29 sec) 
Heartbeat CPU  0 instructions:  158000001 cycles:  233404461 heartbeat IPC: 0.46823 cumulative IPC: 0.35456 (Simulation time: 0 hr 5 min 31 sec) 
Heartbeat CPU  0 instructions:  159000000 cycles:  235353994 heartbeat IPC: 0.51294 cumulative IPC: 0.35643 (Simulation time: 0 hr 5 min 33 sec) 
Heartbeat CPU  0 instructions:  160000000 cycles:  237458788 heartbeat IPC: 0.47511 cumulative IPC: 0.35792 (Simulation time: 0 hr 5 min 35 sec) 
Heartbeat CPU  0 instructions:  161000003 cycles:  239577763 heartbeat IPC: 0.47193 cumulative IPC: 0.35934 (Simulation time: 0 hr 5 min 37 sec) 
Heartbeat CPU  0 instructions:  162000000 cycles:  241570911 heartbeat IPC: 0.50172 cumulative IPC: 0.36100 (Simulation time: 0 hr 5 min 40 sec) 
Heartbeat CPU  0 instructions:  163000003 cycles:  243559577 heartbeat IPC: 0.50285 cumulative IPC: 0.36262 (Simulation time: 0 hr 5 min 42 sec) 
Heartbeat CPU  0 instructions:  164000000 cycles:  245639403 heartbeat IPC: 0.48081 cumulative IPC: 0.36402 (Simulation time: 0 hr 5 min 44 sec) 
Heartbeat CPU  0 instructions:  165000000 cycles:  247715632 heartbeat IPC: 0.48164 cumulative IPC: 0.36539 (Simulation time: 0 hr 5 min 46 sec) 
Heartbeat CPU  0 instructions:  166000001 cycles:  249636997 heartbeat IPC: 0.52046 cumulative IPC: 0.36705 (Simulation time: 0 hr 5 min 48 sec) 
Heartbeat CPU  0 instructions:  167000000 cycles:  251750569 heartbeat IPC: 0.47313 cumulative IPC: 0.36828 (Simulation time: 0 hr 5 min 50 sec) 
Heartbeat CPU  0 instructions:  168000000 cycles:  253838989 heartbeat IPC: 0.47883 cumulative IPC: 0.36953 (Simulation time: 0 hr 5 min 53 sec) 
Heartbeat CPU  0 instructions:  169000001 cycles:  255775872 heartbeat IPC: 0.51629 cumulative IPC: 0.37106 (Simulation time: 0 hr 5 min 55 sec) 
Heartbeat CPU  0 instructions:  170000002 cycles:  257797073 heartbeat IPC: 0.49476 cumulative IPC: 0.37239 (Simulation time: 0 hr 5 min 57 sec) 
Heartbeat CPU  0 instructions:  171000001 cycles:  259842434 heartbeat IPC: 0.48891 cumulative IPC: 0.37365 (Simulation time: 0 hr 5 min 59 sec) 
Heartbeat CPU  0 instructions:  172000000 cycles:  261800745 heartbeat IPC: 0.51064 cumulative IPC: 0.37504 (Simulation time: 0 hr 6 min 1 sec) 
Heartbeat CPU  0 instructions:  173000000 cycles:  263734375 heartbeat IPC: 0.51716 cumulative IPC: 0.37646 (Simulation time: 0 hr 6 min 3 sec) 
Heartbeat CPU  0 instructions:  174000003 cycles:  265763869 heartbeat IPC: 0.49274 cumulative IPC: 0.37767 (Simulation time: 0 hr 6 min 6 sec) 
Heartbeat CPU  0 instructions:  175000000 cycles:  273496580 heartbeat IPC: 0.12932 cumulative IPC: 0.36824 (Simulation time: 0 hr 6 min 8 sec) 
Heartbeat CPU  0 instructions:  176000000 cycles:  284639597 heartbeat IPC: 0.08974 cumulative IPC: 0.35379 (Simulation time: 0 hr 6 min 11 sec) 
Heartbeat CPU  0 instructions:  177000001 cycles:  286863648 heartbeat IPC: 0.44963 cumulative IPC: 0.35477 (Simulation time: 0 hr 6 min 13 sec) 
Heartbeat CPU  0 instructions:  178000003 cycles:  289165778 heartbeat IPC: 0.43438 cumulative IPC: 0.35561 (Simulation time: 0 hr 6 min 15 sec) 
Heartbeat CPU  0 instructions:  179000002 cycles:  291330724 heartbeat IPC: 0.46190 cumulative IPC: 0.35665 (Simulation time: 0 hr 6 min 18 sec) 
Heartbeat CPU  0 instructions:  180000000 cycles:  293458962 heartbeat IPC: 0.46987 cumulative IPC: 0.35773 (Simulation time: 0 hr 6 min 20 sec) 
Heartbeat CPU  0 instructions:  181000003 cycles:  295611704 heartbeat IPC: 0.46453 cumulative IPC: 0.35874 (Simulation time: 0 hr 6 min 22 sec) 
Heartbeat CPU  0 instructions:  182000003 cycles:  297649139 heartbeat IPC: 0.49081 cumulative IPC: 0.35992 (Simulation time: 0 hr 6 min 24 sec) 
Heartbeat CPU  0 instructions:  183000000 cycles:  299696891 heartbeat IPC: 0.48834 cumulative IPC: 0.36107 (Simulation time: 0 hr 6 min 26 sec) 
Heartbeat CPU  0 instructions:  184000000 cycles:  301803935 heartbeat IPC: 0.47460 cumulative IPC: 0.36210 (Simulation time: 0 hr 6 min 29 sec) 
Heartbeat CPU  0 instructions:  185000002 cycles:  303893761 heartbeat IPC: 0.47851 cumulative IPC: 0.36314 (Simulation time: 0 hr 6 min 31 sec) 
Heartbeat CPU  0 instructions:  186000001 cycles:  305845237 heartbeat IPC: 0.51243 cumulative IPC: 0.36437 (Simulation time: 0 hr 6 min 33 sec) 
Heartbeat CPU  0 instructions:  187000000 cycles:  307935153 heartbeat IPC: 0.47849 cumulative IPC: 0.36538 (Simulation time: 0 hr 6 min 35 sec) 
Heartbeat CPU  0 instructions:  188000000 cycles:  310020087 heartbeat IPC: 0.47963 cumulative IPC: 0.36637 (Simulation time: 0 hr 6 min 37 sec) 
Heartbeat CPU  0 instructions:  189000000 cycles:  311988651 heartbeat IPC: 0.50798 cumulative IPC: 0.36752 (Simulation time: 0 hr 6 min 39 sec) 
Heartbeat CPU  0 instructions:  190000000 cycles:  314052927 heartbeat IPC: 0.48443 cumulative IPC: 0.36851 (Simulation time: 0 hr 6 min 42 sec) 
Heartbeat CPU  0 instructions:  191000000 cycles:  316157189 heartbeat IPC: 0.47523 cumulative IPC: 0.36942 (Simulation time: 0 hr 6 min 44 sec) 
Heartbeat CPU  0 instructions:  192000000 cycles:  318177228 heartbeat IPC: 0.49504 cumulative IPC: 0.37044 (Simulation time: 0 hr 6 min 46 sec) 
Heartbeat CPU  0 instructions:  193000001 cycles:  320148219 heartbeat IPC: 0.50736 cumulative IPC: 0.37152 (Simulation time: 0 hr 6 min 48 sec) 
Heartbeat CPU  0 instructions:  194000000 cycles:  322212349 heartbeat IPC: 0.48447 cumulative IPC: 0.37244 (Simulation time: 0 hr 6 min 50 sec) 
Heartbeat CPU  0 instructions:  195000002 cycles:  324268013 heartbeat IPC: 0.48646 cumulative IPC: 0.37336 (Simulation time: 0 hr 6 min 52 sec) 
Heartbeat CPU  0 instructions:  196000000 cycles:  326166493 heartbeat IPC: 0.52674 cumulative IPC: 0.37450 (Simulation time: 0 hr 6 min 55 sec) 
Heartbeat CPU  0 instructions:  197000000 cycles:  328319466 heartbeat IPC: 0.46447 cumulative IPC: 0.37525 (Simulation time: 0 hr 6 min 57 sec) 
Heartbeat CPU  0 instructions:  198000003 cycles:  343773147 heartbeat IPC: 0.06471 cumulative IPC: 0.35773 (Simulation time: 0 hr 7 min 0 sec) 
Heartbeat CPU  0 instructions:  199000001 cycles:  347266705 heartbeat IPC: 0.28624 cumulative IPC: 0.35683 (Simulation time: 0 hr 7 min 2 sec) 
Heartbeat CPU  0 instructions:  200000000 cycles:  349423699 heartbeat IPC: 0.46361 cumulative IPC: 0.35765 (Simulation time: 0 hr 7 min 4 sec) 
Finished CPU 0 instructions: 100000000 cycles: 279600012 cumulative IPC: 0.35765 (Simulation time: 0 hr 7 min 4 sec) 

ChampSim completed all CPUs

[ROI Statistics]
Core_0_instructions 100000000
Core_0_cycles 279600012
Core_0_IPC 0.35765

Core_0_branch_prediction_accuracy 99.16976
Core_0_branch_MPKI 0.01138
Core_0_average_ROB_occupancy_at_mispredict 253.39016

Core_0_L1D_total_access 50974398
Core_0_L1D_total_hit 50151674
Core_0_L1D_total_miss 822724
Core_0_L1D_loads 34231579
Core_0_L1D_load_hit 33573096
Core_0_L1D_load_miss 658483
Core_0_L1D_RFOs 16742819
Core_0_L1D_RFO_hit 16578578
Core_0_L1D_RFO_miss 164241
Core_0_L1D_prefetches 0
Core_0_L1D_prefetch_hit 0
Core_0_L1D_prefetch_miss 0
Core_0_L1D_writebacks 0
Core_0_L1D_writeback_hit 0
Core_0_L1D_writeback_miss 0
Core_0_L1D_prefetch_requested 0
Core_0_L1D_prefetch_issued 0
Core_0_L1D_prefetch_useful 0
Core_0_L1D_prefetch_useless 0
Core_0_L1D_prefetch_late 0
Core_0_L1D_average_miss_latency 175.02551

Core_0_L1I_total_access 26856231
Core_0_L1I_total_hit 26856231
Core_0_L1I_total_miss 0
Core_0_L1I_loads 26856231
Core_0_L1I_load_hit 26856231
Core_0_L1I_load_miss 0
Core_0_L1I_RFOs 0
Core_0_L1I_RFO_hit 0
Core_0_L1I_RFO_miss 0
Core_0_L1I_prefetches 0
Core_0_L1I_prefetch_hit 0
Core_0_L1I_prefetch_miss 0
Core_0_L1I_writebacks 0
Core_0_L1I_writeback_hit 0
Core_0_L1I_writeback_miss 0
Core_0_L1I_prefetch_requested 0
Core_0_L1I_prefetch_issued 0
Core_0_L1I_prefetch_useful 0
Core_0_L1I_prefetch_useless 0
Core_0_L1I_prefetch_late 0
Core_0_L1I_average_miss_latency -nan

Core_0_L2C_total_access 993865
Core_0_L2C_total_hit 450986
Core_0_L2C_total_miss 542879
Core_0_L2C_loads 658483
Core_0_L2C_load_hit 280019
Core_0_L2C_load_miss 378464
Core_0_L2C_RFOs 164241
Core_0_L2C_RFO_hit 16
Core_0_L2C_RFO_miss 164225
Core_0_L2C_prefetches 0
Core_0_L2C_prefetch_hit 0
Core_0_L2C_prefetch_miss 0
Core_0_L2C_writebacks 171141
Core_0_L2C_writeback_hit 170951
Core_0_L2C_writeback_miss 190
Core_0_L2C_prefetch_requested 0
Core_0_L2C_prefetch_issued 0
Core_0_L2C_prefetch_useful 0
Core_0_L2C_prefetch_useless 0
Core_0_L2C_prefetch_late 0
Core_0_L2C_average_miss_latency 211.94992

Core_0_LLC_total_access 706491
Core_0_LLC_total_hit 148223
Core_0_LLC_total_miss 558268
Core_0_LLC_loads 378464
Core_0_LLC_load_hit 93856
Core_0_LLC_load_miss 284608
Core_0_LLC_RFOs 164225
Core_0_LLC_RFO_hit 27184
Core_0_LLC_RFO_miss 137041
Core_0_LLC_prefetches 0
Core_0_LLC_prefetch_hit 0
Core_0_LLC_prefetch_miss 0
Core_0_LLC_writebacks 163802
Core_0_LLC_writeback_hit 27183
Core_0_LLC_writeback_miss 136619
Core_0_LLC_prefetch_requested 0
Core_0_LLC_prefetch_issued 0
Core_0_LLC_prefetch_useful 0
Core_0_LLC_prefetch_useless 0
Core_0_LLC_prefetch_late 0
Core_0_LLC_average_miss_latency 154.79393

Core_0_major_page_fault 0
Core_0_minor_page_fault 8761

Channel_0_RQ_row_buffer_hit 90799
Channel_0_RQ_row_buffer_miss 330850
Channel_0_WQ_row_buffer_hit 21627
Channel_0_WQ_row_buffer_miss 115147
Channel_0_WQ_full 0
Channel_0_dbus_congested 121172

avg_congested_cycle 10
