*************************************************
   ChampSim Multicore Out-of-Order Simulator
   Last compiled: Dec 22 2023 22:36:57
*************************************************

trace_0 ./test_trace/436.cactusADM-1804B.champsimtrace.xz
Initialize SRRIP state
warmup_instructions 100000000
simulation_instructions 100000000
champsim_seed 271

num_cpus 1
cpu_freq 4000
dram_io_freq 2400
page_size 4096
block_size 64
max_read_per_cycle 8
max_fill_per_cycle 1
dram_channels 1
dram_ranks 1
dram_banks 8
dram_rows 65536
dram_columns 128
dram_row_size 8
dram_size 4096
dram_pages 1048576

fetch_width 6
decode_width 6
exec_width 4
lq_width 2
sq_width 2
retire_width 4
scheduler_size 128
branch_mispredict_penalty 20
rob_size 256
lq_size 72
sq_size 56
num_instr_destinations_sparc 4
num_instr_destinations 2
num_instr_sources 4

itlb_set 16
itlb_way 8
itlb_rq_size 16
itlb_wq_size 16
itlb_pq_size 0
itlb_mshr_size 8
itlb_latency 1

dtlb_set 16
dtlb_way 4
dtlb_rq_size 16
dtlb_wq_size 16
dtlb_pq_size 0
dtlb_mshr_size 8
dtlb_latency 1

stlb_set 128
stlb_way 12
stlb_rq_size 32
stlb_wq_size 32
stlb_pq_size 0
stlb_mshr_size 16
stlb_latency 8

l1i_size 32
l1i_set 64
l1i_way 8
l1i_rq_size 64
l1i_wq_size 64
l1i_pq_size 8
l1i_mshr_size 8
l1i_latency 1

l1d_size 32
l1d_set 64
l1d_way 8
l1d_rq_size 64
l1d_wq_size 64
l1d_pq_size 8
l1d_mshr_size 16
l1d_latency 4

l2c_size 512
l2c_set 1024
l2c_way 8
l2c_rq_size 32
l2c_wq_size 32
l2c_pq_size 16
l2c_mshr_size 32
l2c_latency 10

llc_size 2048
llc_set 2048
llc_way 16
llc_rq_size 32
llc_wq_size 32
llc_pq_size 32
llc_mshr_size 64
llc_latency 20

dram_channel_width 8
dram_wq_size 64
dram_rq_size 64
tRP 15
tRCD 15
tCAS 12.5
dram_dbus_turn_around_time 30
dram_write_high_wm 56
dram_write_low_wm 48
min_dram_writes_per_switch 16
dram_mtps 2400
dram_dbus_return_time 13


Heartbeat CPU  0 instructions:    1000003 cycles:     702358 heartbeat IPC: 1.42378 cumulative IPC: 1.42378 (Simulation time: 0 hr 0 min 2 sec) 
Heartbeat CPU  0 instructions:    2000000 cycles:    1404572 heartbeat IPC: 1.42406 cumulative IPC: 1.42392 (Simulation time: 0 hr 0 min 4 sec) 
Heartbeat CPU  0 instructions:    3000000 cycles:    2106946 heartbeat IPC: 1.42374 cumulative IPC: 1.42386 (Simulation time: 0 hr 0 min 6 sec) 
Heartbeat CPU  0 instructions:    4000000 cycles:    2809279 heartbeat IPC: 1.42383 cumulative IPC: 1.42385 (Simulation time: 0 hr 0 min 8 sec) 
Heartbeat CPU  0 instructions:    5000000 cycles:    3511467 heartbeat IPC: 1.42412 cumulative IPC: 1.42391 (Simulation time: 0 hr 0 min 10 sec) 
Heartbeat CPU  0 instructions:    6000000 cycles:    4213839 heartbeat IPC: 1.42375 cumulative IPC: 1.42388 (Simulation time: 0 hr 0 min 12 sec) 
Heartbeat CPU  0 instructions:    7000001 cycles:    4916238 heartbeat IPC: 1.42369 cumulative IPC: 1.42385 (Simulation time: 0 hr 0 min 15 sec) 
Heartbeat CPU  0 instructions:    8000000 cycles:    5618388 heartbeat IPC: 1.42420 cumulative IPC: 1.42390 (Simulation time: 0 hr 0 min 17 sec) 
Heartbeat CPU  0 instructions:    9000001 cycles:    6320823 heartbeat IPC: 1.42362 cumulative IPC: 1.42387 (Simulation time: 0 hr 0 min 19 sec) 
Heartbeat CPU  0 instructions:   10000000 cycles:    7023046 heartbeat IPC: 1.42405 cumulative IPC: 1.42388 (Simulation time: 0 hr 0 min 21 sec) 
Heartbeat CPU  0 instructions:   11000002 cycles:    7725291 heartbeat IPC: 1.42401 cumulative IPC: 1.42389 (Simulation time: 0 hr 0 min 24 sec) 
Heartbeat CPU  0 instructions:   12000000 cycles:    8427446 heartbeat IPC: 1.42418 cumulative IPC: 1.42392 (Simulation time: 0 hr 0 min 26 sec) 
Heartbeat CPU  0 instructions:   13000000 cycles:    9129995 heartbeat IPC: 1.42339 cumulative IPC: 1.42388 (Simulation time: 0 hr 0 min 28 sec) 
Heartbeat CPU  0 instructions:   14000002 cycles:    9832234 heartbeat IPC: 1.42402 cumulative IPC: 1.42389 (Simulation time: 0 hr 0 min 30 sec) 
Heartbeat CPU  0 instructions:   15000002 cycles:   10534154 heartbeat IPC: 1.42466 cumulative IPC: 1.42394 (Simulation time: 0 hr 0 min 33 sec) 
Heartbeat CPU  0 instructions:   16000000 cycles:   11236702 heartbeat IPC: 1.42339 cumulative IPC: 1.42391 (Simulation time: 0 hr 0 min 35 sec) 
Heartbeat CPU  0 instructions:   17000000 cycles:   11939222 heartbeat IPC: 1.42345 cumulative IPC: 1.42388 (Simulation time: 0 hr 0 min 38 sec) 
Heartbeat CPU  0 instructions:   18000001 cycles:   12602182 heartbeat IPC: 1.50839 cumulative IPC: 1.42832 (Simulation time: 0 hr 0 min 40 sec) 
Heartbeat CPU  0 instructions:   19000000 cycles:   13240530 heartbeat IPC: 1.56654 cumulative IPC: 1.43499 (Simulation time: 0 hr 0 min 42 sec) 
Heartbeat CPU  0 instructions:   20000000 cycles:   13943043 heartbeat IPC: 1.42346 cumulative IPC: 1.43441 (Simulation time: 0 hr 0 min 45 sec) 
Heartbeat CPU  0 instructions:   21000000 cycles:   14645419 heartbeat IPC: 1.42374 cumulative IPC: 1.43390 (Simulation time: 0 hr 0 min 47 sec) 
Heartbeat CPU  0 instructions:   22000002 cycles:   15347715 heartbeat IPC: 1.42390 cumulative IPC: 1.43344 (Simulation time: 0 hr 0 min 49 sec) 
Heartbeat CPU  0 instructions:   23000001 cycles:   16050105 heartbeat IPC: 1.42371 cumulative IPC: 1.43301 (Simulation time: 0 hr 0 min 52 sec) 
Heartbeat CPU  0 instructions:   24000000 cycles:   16752197 heartbeat IPC: 1.42431 cumulative IPC: 1.43265 (Simulation time: 0 hr 0 min 54 sec) 
Heartbeat CPU  0 instructions:   25000001 cycles:   17454495 heartbeat IPC: 1.42390 cumulative IPC: 1.43230 (Simulation time: 0 hr 0 min 56 sec) 
Heartbeat CPU  0 instructions:   26000003 cycles:   18157172 heartbeat IPC: 1.42313 cumulative IPC: 1.43194 (Simulation time: 0 hr 0 min 59 sec) 
Heartbeat CPU  0 instructions:   27000003 cycles:   18859366 heartbeat IPC: 1.42411 cumulative IPC: 1.43165 (Simulation time: 0 hr 1 min 1 sec) 
Heartbeat CPU  0 instructions:   28000000 cycles:   19561491 heartbeat IPC: 1.42424 cumulative IPC: 1.43138 (Simulation time: 0 hr 1 min 3 sec) 
Heartbeat CPU  0 instructions:   29000000 cycles:   20263900 heartbeat IPC: 1.42367 cumulative IPC: 1.43112 (Simulation time: 0 hr 1 min 6 sec) 
Heartbeat CPU  0 instructions:   30000003 cycles:   20966282 heartbeat IPC: 1.42373 cumulative IPC: 1.43087 (Simulation time: 0 hr 1 min 8 sec) 
Heartbeat CPU  0 instructions:   31000003 cycles:   21668129 heartbeat IPC: 1.42481 cumulative IPC: 1.43067 (Simulation time: 0 hr 1 min 10 sec) 
Heartbeat CPU  0 instructions:   32000000 cycles:   22370250 heartbeat IPC: 1.42425 cumulative IPC: 1.43047 (Simulation time: 0 hr 1 min 12 sec) 
Heartbeat CPU  0 instructions:   33000001 cycles:   23072993 heartbeat IPC: 1.42300 cumulative IPC: 1.43024 (Simulation time: 0 hr 1 min 15 sec) 
Heartbeat CPU  0 instructions:   34000000 cycles:   23775174 heartbeat IPC: 1.42413 cumulative IPC: 1.43006 (Simulation time: 0 hr 1 min 17 sec) 
Heartbeat CPU  0 instructions:   35000001 cycles:   24477432 heartbeat IPC: 1.42398 cumulative IPC: 1.42989 (Simulation time: 0 hr 1 min 19 sec) 
Heartbeat CPU  0 instructions:   36000000 cycles:   25179621 heartbeat IPC: 1.42412 cumulative IPC: 1.42973 (Simulation time: 0 hr 1 min 21 sec) 
Heartbeat CPU  0 instructions:   37000000 cycles:   25882159 heartbeat IPC: 1.42341 cumulative IPC: 1.42956 (Simulation time: 0 hr 1 min 24 sec) 
Heartbeat CPU  0 instructions:   38000001 cycles:   26584405 heartbeat IPC: 1.42400 cumulative IPC: 1.42941 (Simulation time: 0 hr 1 min 26 sec) 
Heartbeat CPU  0 instructions:   39000000 cycles:   27286671 heartbeat IPC: 1.42396 cumulative IPC: 1.42927 (Simulation time: 0 hr 1 min 28 sec) 
Heartbeat CPU  0 instructions:   40000000 cycles:   27988844 heartbeat IPC: 1.42415 cumulative IPC: 1.42914 (Simulation time: 0 hr 1 min 30 sec) 
Heartbeat CPU  0 instructions:   41000000 cycles:   28598744 heartbeat IPC: 1.63961 cumulative IPC: 1.43363 (Simulation time: 0 hr 1 min 33 sec) 
Heartbeat CPU  0 instructions:   42000002 cycles:   29290609 heartbeat IPC: 1.44537 cumulative IPC: 1.43391 (Simulation time: 0 hr 1 min 35 sec) 
Heartbeat CPU  0 instructions:   43000002 cycles:   29993052 heartbeat IPC: 1.42360 cumulative IPC: 1.43367 (Simulation time: 0 hr 1 min 37 sec) 
Heartbeat CPU  0 instructions:   44000000 cycles:   30695546 heartbeat IPC: 1.42350 cumulative IPC: 1.43343 (Simulation time: 0 hr 1 min 39 sec) 
Heartbeat CPU  0 instructions:   45000003 cycles:   31397772 heartbeat IPC: 1.42405 cumulative IPC: 1.43322 (Simulation time: 0 hr 1 min 42 sec) 
Heartbeat CPU  0 instructions:   46000003 cycles:   32099957 heartbeat IPC: 1.42413 cumulative IPC: 1.43302 (Simulation time: 0 hr 1 min 44 sec) 
Heartbeat CPU  0 instructions:   47000000 cycles:   32802153 heartbeat IPC: 1.42410 cumulative IPC: 1.43283 (Simulation time: 0 hr 1 min 46 sec) 
Heartbeat CPU  0 instructions:   48000000 cycles:   33504786 heartbeat IPC: 1.42322 cumulative IPC: 1.43263 (Simulation time: 0 hr 1 min 49 sec) 
Heartbeat CPU  0 instructions:   49000000 cycles:   34206781 heartbeat IPC: 1.42451 cumulative IPC: 1.43246 (Simulation time: 0 hr 1 min 51 sec) 
Heartbeat CPU  0 instructions:   50000000 cycles:   34909113 heartbeat IPC: 1.42383 cumulative IPC: 1.43229 (Simulation time: 0 hr 1 min 53 sec) 
Heartbeat CPU  0 instructions:   51000000 cycles:   35611629 heartbeat IPC: 1.42346 cumulative IPC: 1.43212 (Simulation time: 0 hr 1 min 55 sec) 
Heartbeat CPU  0 instructions:   52000000 cycles:   36313797 heartbeat IPC: 1.42416 cumulative IPC: 1.43196 (Simulation time: 0 hr 1 min 58 sec) 
Heartbeat CPU  0 instructions:   53000000 cycles:   37016119 heartbeat IPC: 1.42385 cumulative IPC: 1.43181 (Simulation time: 0 hr 2 min 0 sec) 
Heartbeat CPU  0 instructions:   54000001 cycles:   37718196 heartbeat IPC: 1.42435 cumulative IPC: 1.43167 (Simulation time: 0 hr 2 min 2 sec) 
Heartbeat CPU  0 instructions:   55000001 cycles:   38420459 heartbeat IPC: 1.42397 cumulative IPC: 1.43153 (Simulation time: 0 hr 2 min 5 sec) 
Heartbeat CPU  0 instructions:   56000000 cycles:   39122961 heartbeat IPC: 1.42348 cumulative IPC: 1.43138 (Simulation time: 0 hr 2 min 7 sec) 
Heartbeat CPU  0 instructions:   57000000 cycles:   39825413 heartbeat IPC: 1.42358 cumulative IPC: 1.43125 (Simulation time: 0 hr 2 min 9 sec) 
Heartbeat CPU  0 instructions:   58000002 cycles:   40527638 heartbeat IPC: 1.42405 cumulative IPC: 1.43112 (Simulation time: 0 hr 2 min 11 sec) 
Heartbeat CPU  0 instructions:   59000000 cycles:   41229821 heartbeat IPC: 1.42413 cumulative IPC: 1.43100 (Simulation time: 0 hr 2 min 14 sec) 
Heartbeat CPU  0 instructions:   60000000 cycles:   41932328 heartbeat IPC: 1.42347 cumulative IPC: 1.43088 (Simulation time: 0 hr 2 min 16 sec) 
Heartbeat CPU  0 instructions:   61000000 cycles:   42634537 heartbeat IPC: 1.42408 cumulative IPC: 1.43076 (Simulation time: 0 hr 2 min 19 sec) 
Heartbeat CPU  0 instructions:   62000002 cycles:   43336711 heartbeat IPC: 1.42415 cumulative IPC: 1.43066 (Simulation time: 0 hr 2 min 21 sec) 
Heartbeat CPU  0 instructions:   63000000 cycles:   43986680 heartbeat IPC: 1.53853 cumulative IPC: 1.43225 (Simulation time: 0 hr 2 min 23 sec) 
Heartbeat CPU  0 instructions:   64000000 cycles:   44640237 heartbeat IPC: 1.53009 cumulative IPC: 1.43368 (Simulation time: 0 hr 2 min 25 sec) 
Heartbeat CPU  0 instructions:   65000000 cycles:   45342338 heartbeat IPC: 1.42430 cumulative IPC: 1.43354 (Simulation time: 0 hr 2 min 28 sec) 
Heartbeat CPU  0 instructions:   66000001 cycles:   46044449 heartbeat IPC: 1.42428 cumulative IPC: 1.43340 (Simulation time: 0 hr 2 min 30 sec) 
Heartbeat CPU  0 instructions:   67000002 cycles:   46746525 heartbeat IPC: 1.42435 cumulative IPC: 1.43326 (Simulation time: 0 hr 2 min 32 sec) 
Heartbeat CPU  0 instructions:   68000000 cycles:   47448949 heartbeat IPC: 1.42364 cumulative IPC: 1.43312 (Simulation time: 0 hr 2 min 34 sec) 
Heartbeat CPU  0 instructions:   69000000 cycles:   48151166 heartbeat IPC: 1.42406 cumulative IPC: 1.43299 (Simulation time: 0 hr 2 min 37 sec) 
Heartbeat CPU  0 instructions:   70000002 cycles:   48853291 heartbeat IPC: 1.42425 cumulative IPC: 1.43286 (Simulation time: 0 hr 2 min 39 sec) 
Heartbeat CPU  0 instructions:   71000003 cycles:   49555911 heartbeat IPC: 1.42325 cumulative IPC: 1.43273 (Simulation time: 0 hr 2 min 41 sec) 
Heartbeat CPU  0 instructions:   72000000 cycles:   50257992 heartbeat IPC: 1.42433 cumulative IPC: 1.43261 (Simulation time: 0 hr 2 min 44 sec) 
Heartbeat CPU  0 instructions:   73000001 cycles:   50960131 heartbeat IPC: 1.42422 cumulative IPC: 1.43249 (Simulation time: 0 hr 2 min 46 sec) 
Heartbeat CPU  0 instructions:   74000003 cycles:   51662474 heartbeat IPC: 1.42381 cumulative IPC: 1.43237 (Simulation time: 0 hr 2 min 48 sec) 
Heartbeat CPU  0 instructions:   75000002 cycles:   52365142 heartbeat IPC: 1.42315 cumulative IPC: 1.43225 (Simulation time: 0 hr 2 min 50 sec) 
Heartbeat CPU  0 instructions:   76000000 cycles:   53067265 heartbeat IPC: 1.42425 cumulative IPC: 1.43214 (Simulation time: 0 hr 2 min 52 sec) 
Heartbeat CPU  0 instructions:   77000003 cycles:   53769902 heartbeat IPC: 1.42321 cumulative IPC: 1.43203 (Simulation time: 0 hr 2 min 54 sec) 
Heartbeat CPU  0 instructions:   78000001 cycles:   54472450 heartbeat IPC: 1.42339 cumulative IPC: 1.43192 (Simulation time: 0 hr 2 min 56 sec) 
Heartbeat CPU  0 instructions:   79000001 cycles:   55174316 heartbeat IPC: 1.42477 cumulative IPC: 1.43183 (Simulation time: 0 hr 2 min 58 sec) 
Heartbeat CPU  0 instructions:   80000000 cycles:   55876298 heartbeat IPC: 1.42454 cumulative IPC: 1.43173 (Simulation time: 0 hr 3 min 0 sec) 
Heartbeat CPU  0 instructions:   81000002 cycles:   56578719 heartbeat IPC: 1.42365 cumulative IPC: 1.43163 (Simulation time: 0 hr 3 min 2 sec) 
Heartbeat CPU  0 instructions:   82000000 cycles:   57281008 heartbeat IPC: 1.42391 cumulative IPC: 1.43154 (Simulation time: 0 hr 3 min 4 sec) 
Heartbeat CPU  0 instructions:   83000001 cycles:   57983261 heartbeat IPC: 1.42399 cumulative IPC: 1.43145 (Simulation time: 0 hr 3 min 7 sec) 
Heartbeat CPU  0 instructions:   84000000 cycles:   58685482 heartbeat IPC: 1.42405 cumulative IPC: 1.43136 (Simulation time: 0 hr 3 min 9 sec) 
Heartbeat CPU  0 instructions:   85000000 cycles:   59374717 heartbeat IPC: 1.45088 cumulative IPC: 1.43159 (Simulation time: 0 hr 3 min 11 sec) 
Heartbeat CPU  0 instructions:   86000002 cycles:   59988429 heartbeat IPC: 1.62943 cumulative IPC: 1.43361 (Simulation time: 0 hr 3 min 14 sec) 
Heartbeat CPU  0 instructions:   87000002 cycles:   60690900 heartbeat IPC: 1.42355 cumulative IPC: 1.43349 (Simulation time: 0 hr 3 min 16 sec) 
Heartbeat CPU  0 instructions:   88000000 cycles:   61393506 heartbeat IPC: 1.42327 cumulative IPC: 1.43338 (Simulation time: 0 hr 3 min 18 sec) 
Heartbeat CPU  0 instructions:   89000001 cycles:   62095522 heartbeat IPC: 1.42447 cumulative IPC: 1.43328 (Simulation time: 0 hr 3 min 20 sec) 
Heartbeat CPU  0 instructions:   90000003 cycles:   62797935 heartbeat IPC: 1.42367 cumulative IPC: 1.43317 (Simulation time: 0 hr 3 min 23 sec) 
Heartbeat CPU  0 instructions:   91000003 cycles:   63500376 heartbeat IPC: 1.42361 cumulative IPC: 1.43306 (Simulation time: 0 hr 3 min 25 sec) 
Heartbeat CPU  0 instructions:   92000000 cycles:   64202621 heartbeat IPC: 1.42400 cumulative IPC: 1.43296 (Simulation time: 0 hr 3 min 27 sec) 
Heartbeat CPU  0 instructions:   93000002 cycles:   64904950 heartbeat IPC: 1.42384 cumulative IPC: 1.43286 (Simulation time: 0 hr 3 min 30 sec) 
Heartbeat CPU  0 instructions:   94000002 cycles:   65606963 heartbeat IPC: 1.42448 cumulative IPC: 1.43277 (Simulation time: 0 hr 3 min 32 sec) 
Heartbeat CPU  0 instructions:   95000003 cycles:   66309216 heartbeat IPC: 1.42399 cumulative IPC: 1.43268 (Simulation time: 0 hr 3 min 34 sec) 
Heartbeat CPU  0 instructions:   96000000 cycles:   67011458 heartbeat IPC: 1.42401 cumulative IPC: 1.43259 (Simulation time: 0 hr 3 min 36 sec) 
Heartbeat CPU  0 instructions:   97000000 cycles:   67713783 heartbeat IPC: 1.42384 cumulative IPC: 1.43250 (Simulation time: 0 hr 3 min 38 sec) 
Heartbeat CPU  0 instructions:   98000002 cycles:   68415962 heartbeat IPC: 1.42414 cumulative IPC: 1.43241 (Simulation time: 0 hr 3 min 40 sec) 
Heartbeat CPU  0 instructions:   99000003 cycles:   69118205 heartbeat IPC: 1.42401 cumulative IPC: 1.43233 (Simulation time: 0 hr 3 min 41 sec) 
Heartbeat CPU  0 instructions:  100000000 cycles:   69820549 heartbeat IPC: 1.42380 cumulative IPC: 1.43224 (Simulation time: 0 hr 3 min 43 sec) 

Warmup complete CPU  0 instructions:  100000001 cycles:   69820569 (Simulation time: 0 hr 3 min 43 sec) 

Heartbeat CPU  0 instructions:  101000000 cycles:   72035705 heartbeat IPC: 0.45144 cumulative IPC: 0.45144 (Simulation time: 0 hr 3 min 46 sec) 
Heartbeat CPU  0 instructions:  102000003 cycles:   74089140 heartbeat IPC: 0.48699 cumulative IPC: 0.46854 (Simulation time: 0 hr 3 min 48 sec) 
Heartbeat CPU  0 instructions:  103000003 cycles:   76249674 heartbeat IPC: 0.46285 cumulative IPC: 0.46663 (Simulation time: 0 hr 3 min 50 sec) 
Heartbeat CPU  0 instructions:  104000000 cycles:   78461988 heartbeat IPC: 0.45201 cumulative IPC: 0.46289 (Simulation time: 0 hr 3 min 53 sec) 
Heartbeat CPU  0 instructions:  105000002 cycles:   80591436 heartbeat IPC: 0.46961 cumulative IPC: 0.46422 (Simulation time: 0 hr 3 min 55 sec) 
Heartbeat CPU  0 instructions:  106000000 cycles:   82677255 heartbeat IPC: 0.47943 cumulative IPC: 0.46668 (Simulation time: 0 hr 3 min 57 sec) 
Heartbeat CPU  0 instructions:  107000003 cycles:   84864918 heartbeat IPC: 0.45711 cumulative IPC: 0.46529 (Simulation time: 0 hr 3 min 59 sec) 
Heartbeat CPU  0 instructions:  108000000 cycles:   96478442 heartbeat IPC: 0.08611 cumulative IPC: 0.30010 (Simulation time: 0 hr 4 min 2 sec) 
Heartbeat CPU  0 instructions:  109000003 cycles:  103919985 heartbeat IPC: 0.13438 cumulative IPC: 0.26393 (Simulation time: 0 hr 4 min 5 sec) 
Heartbeat CPU  0 instructions:  110000001 cycles:  106116302 heartbeat IPC: 0.45531 cumulative IPC: 0.27551 (Simulation time: 0 hr 4 min 7 sec) 
Heartbeat CPU  0 instructions:  111000000 cycles:  108331733 heartbeat IPC: 0.45138 cumulative IPC: 0.28563 (Simulation time: 0 hr 4 min 9 sec) 
Heartbeat CPU  0 instructions:  112000000 cycles:  110383969 heartbeat IPC: 0.48727 cumulative IPC: 0.29583 (Simulation time: 0 hr 4 min 11 sec) 
Heartbeat CPU  0 instructions:  113000000 cycles:  112532234 heartbeat IPC: 0.46549 cumulative IPC: 0.30437 (Simulation time: 0 hr 4 min 14 sec) 
Heartbeat CPU  0 instructions:  114000000 cycles:  114766457 heartbeat IPC: 0.44758 cumulative IPC: 0.31149 (Simulation time: 0 hr 4 min 16 sec) 
Heartbeat CPU  0 instructions:  115000001 cycles:  116903202 heartbeat IPC: 0.46800 cumulative IPC: 0.31859 (Simulation time: 0 hr 4 min 18 sec) 
Heartbeat CPU  0 instructions:  116000000 cycles:  118989814 heartbeat IPC: 0.47925 cumulative IPC: 0.32541 (Simulation time: 0 hr 4 min 21 sec) 
Heartbeat CPU  0 instructions:  117000003 cycles:  121178304 heartbeat IPC: 0.45694 cumulative IPC: 0.33101 (Simulation time: 0 hr 4 min 23 sec) 
Heartbeat CPU  0 instructions:  118000000 cycles:  123377506 heartbeat IPC: 0.45471 cumulative IPC: 0.33609 (Simulation time: 0 hr 4 min 26 sec) 
Heartbeat CPU  0 instructions:  119000002 cycles:  125421980 heartbeat IPC: 0.48912 cumulative IPC: 0.34172 (Simulation time: 0 hr 4 min 28 sec) 
Heartbeat CPU  0 instructions:  120000000 cycles:  127605036 heartbeat IPC: 0.45807 cumulative IPC: 0.34611 (Simulation time: 0 hr 4 min 31 sec) 
Heartbeat CPU  0 instructions:  121000003 cycles:  129805154 heartbeat IPC: 0.45452 cumulative IPC: 0.35009 (Simulation time: 0 hr 4 min 33 sec) 
Heartbeat CPU  0 instructions:  122000000 cycles:  131891195 heartbeat IPC: 0.47938 cumulative IPC: 0.35443 (Simulation time: 0 hr 4 min 36 sec) 
Heartbeat CPU  0 instructions:  123000002 cycles:  134030105 heartbeat IPC: 0.46753 cumulative IPC: 0.35820 (Simulation time: 0 hr 4 min 39 sec) 
Heartbeat CPU  0 instructions:  124000000 cycles:  136230254 heartbeat IPC: 0.45451 cumulative IPC: 0.36139 (Simulation time: 0 hr 4 min 41 sec) 
Heartbeat CPU  0 instructions:  125000000 cycles:  138366024 heartbeat IPC: 0.46822 cumulative IPC: 0.36472 (Simulation time: 0 hr 4 min 44 sec) 
Heartbeat CPU  0 instructions:  126000002 cycles:  140451753 heartbeat IPC: 0.47945 cumulative IPC: 0.36811 (Simulation time: 0 hr 4 min 47 sec) 
Heartbeat CPU  0 instructions:  127000002 cycles:  142771838 heartbeat IPC: 0.43102 cumulative IPC: 0.37011 (Simulation time: 0 hr 4 min 50 sec) 
Heartbeat CPU  0 instructions:  128000000 cycles:  144952614 heartbeat IPC: 0.45855 cumulative IPC: 0.37268 (Simulation time: 0 hr 4 min 53 sec) 
Heartbeat CPU  0 instructions:  129000001 cycles:  146991556 heartbeat IPC: 0.49045 cumulative IPC: 0.37579 (Simulation time: 0 hr 4 min 55 sec) 
Heartbeat CPU  0 instructions:  130000000 cycles:  153021474 heartbeat IPC: 0.16584 cumulative IPC: 0.36057 (Simulation time: 0 hr 4 min 58 sec) 
Heartbeat CPU  0 instructions:  131000003 cycles:  166140468 heartbeat IPC: 0.07623 cumulative IPC: 0.32184 (Simulation time: 0 hr 5 min 2 sec) 
Heartbeat CPU  0 instructions:  132000000 cycles:  168205008 heartbeat IPC: 0.48437 cumulative IPC: 0.32525 (Simulation time: 0 hr 5 min 5 sec) 
Heartbeat CPU  0 instructions:  133000000 cycles:  170362006 heartbeat IPC: 0.46361 cumulative IPC: 0.32822 (Simulation time: 0 hr 5 min 8 sec) 
Heartbeat CPU  0 instructions:  134000000 cycles:  172577514 heartbeat IPC: 0.45136 cumulative IPC: 0.33088 (Simulation time: 0 hr 5 min 10 sec) 
Heartbeat CPU  0 instructions:  135000000 cycles:  174700514 heartbeat IPC: 0.47103 cumulative IPC: 0.33371 (Simulation time: 0 hr 5 min 13 sec) 
Heartbeat CPU  0 instructions:  136000000 cycles:  176755773 heartbeat IPC: 0.48656 cumulative IPC: 0.33665 (Simulation time: 0 hr 5 min 16 sec) 
Heartbeat CPU  0 instructions:  137000002 cycles:  178971227 heartbeat IPC: 0.45138 cumulative IPC: 0.33898 (Simulation time: 0 hr 5 min 19 sec) 
Heartbeat CPU  0 instructions:  138000000 cycles:  181182388 heartbeat IPC: 0.45225 cumulative IPC: 0.34123 (Simulation time: 0 hr 5 min 22 sec) 
Heartbeat CPU  0 instructions:  139000001 cycles:  183222330 heartbeat IPC: 0.49021 cumulative IPC: 0.34391 (Simulation time: 0 hr 5 min 24 sec) 
Heartbeat CPU  0 instructions:  140000000 cycles:  185417452 heartbeat IPC: 0.45556 cumulative IPC: 0.34603 (Simulation time: 0 hr 5 min 27 sec) 
Heartbeat CPU  0 instructions:  141000000 cycles:  187611962 heartbeat IPC: 0.45568 cumulative IPC: 0.34807 (Simulation time: 0 hr 5 min 30 sec) 
Heartbeat CPU  0 instructions:  142000001 cycles:  189709770 heartbeat IPC: 0.47669 cumulative IPC: 0.35032 (Simulation time: 0 hr 5 min 33 sec) 
Heartbeat CPU  0 instructions:  143000001 cycles:  191840729 heartbeat IPC: 0.46927 cumulative IPC: 0.35240 (Simulation time: 0 hr 5 min 36 sec) 
Heartbeat CPU  0 instructions:  144000000 cycles:  194044731 heartbeat IPC: 0.45372 cumulative IPC: 0.35420 (Simulation time: 0 hr 5 min 38 sec) 
Heartbeat CPU  0 instructions:  145000000 cycles:  196204908 heartbeat IPC: 0.46293 cumulative IPC: 0.35606 (Simulation time: 0 hr 5 min 41 sec) 
Heartbeat CPU  0 instructions:  146000002 cycles:  198261940 heartbeat IPC: 0.48614 cumulative IPC: 0.35814 (Simulation time: 0 hr 5 min 44 sec) 
Heartbeat CPU  0 instructions:  147000003 cycles:  200457764 heartbeat IPC: 0.45541 cumulative IPC: 0.35978 (Simulation time: 0 hr 5 min 47 sec) 
Heartbeat CPU  0 instructions:  148000000 cycles:  202649678 heartbeat IPC: 0.45622 cumulative IPC: 0.36137 (Simulation time: 0 hr 5 min 50 sec) 
Heartbeat CPU  0 instructions:  149000002 cycles:  204696077 heartbeat IPC: 0.48866 cumulative IPC: 0.36330 (Simulation time: 0 hr 5 min 52 sec) 
Heartbeat CPU  0 instructions:  150000003 cycles:  206869482 heartbeat IPC: 0.46011 cumulative IPC: 0.36483 (Simulation time: 0 hr 5 min 55 sec) 
Heartbeat CPU  0 instructions:  151000003 cycles:  209065755 heartbeat IPC: 0.45532 cumulative IPC: 0.36626 (Simulation time: 0 hr 5 min 58 sec) 
Heartbeat CPU  0 instructions:  152000000 cycles:  211169128 heartbeat IPC: 0.47543 cumulative IPC: 0.36788 (Simulation time: 0 hr 6 min 1 sec) 
Heartbeat CPU  0 instructions:  153000003 cycles:  224979359 heartbeat IPC: 0.07241 cumulative IPC: 0.34159 (Simulation time: 0 hr 6 min 4 sec) 
Heartbeat CPU  0 instructions:  154000000 cycles:  230475716 heartbeat IPC: 0.18194 cumulative IPC: 0.33612 (Simulation time: 0 hr 6 min 8 sec) 
Heartbeat CPU  0 instructions:  155000000 cycles:  232610818 heartbeat IPC: 0.46836 cumulative IPC: 0.33786 (Simulation time: 0 hr 6 min 10 sec) 
Heartbeat CPU  0 instructions:  156000000 cycles:  234667033 heartbeat IPC: 0.48633 cumulative IPC: 0.33971 (Simulation time: 0 hr 6 min 13 sec) 
Heartbeat CPU  0 instructions:  157000001 cycles:  236855124 heartbeat IPC: 0.45702 cumulative IPC: 0.34125 (Simulation time: 0 hr 6 min 16 sec) 
Heartbeat CPU  0 instructions:  158000001 cycles:  239027054 heartbeat IPC: 0.46042 cumulative IPC: 0.34278 (Simulation time: 0 hr 6 min 19 sec) 
Heartbeat CPU  0 instructions:  159000000 cycles:  241057505 heartbeat IPC: 0.49250 cumulative IPC: 0.34455 (Simulation time: 0 hr 6 min 21 sec) 
Heartbeat CPU  0 instructions:  160000000 cycles:  243252534 heartbeat IPC: 0.45557 cumulative IPC: 0.34596 (Simulation time: 0 hr 6 min 24 sec) 
Heartbeat CPU  0 instructions:  161000003 cycles:  245461376 heartbeat IPC: 0.45273 cumulative IPC: 0.34730 (Simulation time: 0 hr 6 min 27 sec) 
Heartbeat CPU  0 instructions:  162000000 cycles:  247562072 heartbeat IPC: 0.47603 cumulative IPC: 0.34882 (Simulation time: 0 hr 6 min 30 sec) 
Heartbeat CPU  0 instructions:  163000003 cycles:  249692774 heartbeat IPC: 0.46933 cumulative IPC: 0.35025 (Simulation time: 0 hr 6 min 33 sec) 
Heartbeat CPU  0 instructions:  164000000 cycles:  251887415 heartbeat IPC: 0.45565 cumulative IPC: 0.35152 (Simulation time: 0 hr 6 min 36 sec) 
Heartbeat CPU  0 instructions:  165000000 cycles:  254065407 heartbeat IPC: 0.45914 cumulative IPC: 0.35279 (Simulation time: 0 hr 6 min 39 sec) 
Heartbeat CPU  0 instructions:  166000001 cycles:  256087734 heartbeat IPC: 0.49448 cumulative IPC: 0.35433 (Simulation time: 0 hr 6 min 42 sec) 
Heartbeat CPU  0 instructions:  167000000 cycles:  258286883 heartbeat IPC: 0.45472 cumulative IPC: 0.35550 (Simulation time: 0 hr 6 min 45 sec) 
Heartbeat CPU  0 instructions:  168000000 cycles:  260504152 heartbeat IPC: 0.45101 cumulative IPC: 0.35661 (Simulation time: 0 hr 6 min 47 sec) 
Heartbeat CPU  0 instructions:  169000001 cycles:  262567343 heartbeat IPC: 0.48469 cumulative IPC: 0.35798 (Simulation time: 0 hr 6 min 50 sec) 
Heartbeat CPU  0 instructions:  170000002 cycles:  264734418 heartbeat IPC: 0.46145 cumulative IPC: 0.35913 (Simulation time: 0 hr 6 min 53 sec) 
Heartbeat CPU  0 instructions:  171000001 cycles:  266966796 heartbeat IPC: 0.44795 cumulative IPC: 0.36014 (Simulation time: 0 hr 6 min 56 sec) 
Heartbeat CPU  0 instructions:  172000000 cycles:  269100587 heartbeat IPC: 0.46865 cumulative IPC: 0.36130 (Simulation time: 0 hr 6 min 59 sec) 
Heartbeat CPU  0 instructions:  173000000 cycles:  271199674 heartbeat IPC: 0.47640 cumulative IPC: 0.36250 (Simulation time: 0 hr 7 min 2 sec) 
Heartbeat CPU  0 instructions:  174000003 cycles:  273405733 heartbeat IPC: 0.45330 cumulative IPC: 0.36348 (Simulation time: 0 hr 7 min 4 sec) 
Heartbeat CPU  0 instructions:  175000000 cycles:  281219658 heartbeat IPC: 0.12798 cumulative IPC: 0.35478 (Simulation time: 0 hr 7 min 8 sec) 
Heartbeat CPU  0 instructions:  176000000 cycles:  292396271 heartbeat IPC: 0.08947 cumulative IPC: 0.34146 (Simulation time: 0 hr 7 min 12 sec) 
Heartbeat CPU  0 instructions:  177000001 cycles:  294653384 heartbeat IPC: 0.44304 cumulative IPC: 0.34248 (Simulation time: 0 hr 7 min 15 sec) 
Heartbeat CPU  0 instructions:  178000003 cycles:  297009592 heartbeat IPC: 0.42441 cumulative IPC: 0.34333 (Simulation time: 0 hr 7 min 18 sec) 
Heartbeat CPU  0 instructions:  179000002 cycles:  299214425 heartbeat IPC: 0.45355 cumulative IPC: 0.34439 (Simulation time: 0 hr 7 min 21 sec) 
Heartbeat CPU  0 instructions:  180000000 cycles:  301406339 heartbeat IPC: 0.45622 cumulative IPC: 0.34544 (Simulation time: 0 hr 7 min 24 sec) 
Heartbeat CPU  0 instructions:  181000003 cycles:  303630559 heartbeat IPC: 0.44960 cumulative IPC: 0.34644 (Simulation time: 0 hr 7 min 27 sec) 
Heartbeat CPU  0 instructions:  182000003 cycles:  305776989 heartbeat IPC: 0.46589 cumulative IPC: 0.34752 (Simulation time: 0 hr 7 min 30 sec) 
Heartbeat CPU  0 instructions:  183000000 cycles:  307896519 heartbeat IPC: 0.47180 cumulative IPC: 0.34863 (Simulation time: 0 hr 7 min 33 sec) 
Heartbeat CPU  0 instructions:  184000000 cycles:  310108683 heartbeat IPC: 0.45205 cumulative IPC: 0.34958 (Simulation time: 0 hr 7 min 36 sec) 
Heartbeat CPU  0 instructions:  185000002 cycles:  312322544 heartbeat IPC: 0.45170 cumulative IPC: 0.35051 (Simulation time: 0 hr 7 min 39 sec) 
Heartbeat CPU  0 instructions:  186000001 cycles:  314397574 heartbeat IPC: 0.48192 cumulative IPC: 0.35163 (Simulation time: 0 hr 7 min 42 sec) 
Heartbeat CPU  0 instructions:  187000000 cycles:  316600200 heartbeat IPC: 0.45400 cumulative IPC: 0.35254 (Simulation time: 0 hr 7 min 45 sec) 
Heartbeat CPU  0 instructions:  188000000 cycles:  318818395 heartbeat IPC: 0.45082 cumulative IPC: 0.35342 (Simulation time: 0 hr 7 min 48 sec) 
Heartbeat CPU  0 instructions:  189000000 cycles:  320908039 heartbeat IPC: 0.47855 cumulative IPC: 0.35446 (Simulation time: 0 hr 7 min 51 sec) 
Heartbeat CPU  0 instructions:  190000000 cycles:  323078494 heartbeat IPC: 0.46073 cumulative IPC: 0.35537 (Simulation time: 0 hr 7 min 54 sec) 
Heartbeat CPU  0 instructions:  191000000 cycles:  325300864 heartbeat IPC: 0.44997 cumulative IPC: 0.35619 (Simulation time: 0 hr 7 min 57 sec) 
Heartbeat CPU  0 instructions:  192000000 cycles:  327449668 heartbeat IPC: 0.46538 cumulative IPC: 0.35710 (Simulation time: 0 hr 8 min 0 sec) 
Heartbeat CPU  0 instructions:  193000001 cycles:  329566472 heartbeat IPC: 0.47241 cumulative IPC: 0.35804 (Simulation time: 0 hr 8 min 2 sec) 
Heartbeat CPU  0 instructions:  194000000 cycles:  331776668 heartbeat IPC: 0.45245 cumulative IPC: 0.35884 (Simulation time: 0 hr 8 min 5 sec) 
Heartbeat CPU  0 instructions:  195000002 cycles:  333982218 heartbeat IPC: 0.45340 cumulative IPC: 0.35963 (Simulation time: 0 hr 8 min 8 sec) 
Heartbeat CPU  0 instructions:  196000000 cycles:  336031314 heartbeat IPC: 0.48802 cumulative IPC: 0.36062 (Simulation time: 0 hr 8 min 11 sec) 
Heartbeat CPU  0 instructions:  197000000 cycles:  338328660 heartbeat IPC: 0.43528 cumulative IPC: 0.36126 (Simulation time: 0 hr 8 min 14 sec) 
Heartbeat CPU  0 instructions:  198000003 cycles:  353770173 heartbeat IPC: 0.06476 cumulative IPC: 0.34513 (Simulation time: 0 hr 8 min 19 sec) 
Heartbeat CPU  0 instructions:  199000001 cycles:  357296460 heartbeat IPC: 0.28358 cumulative IPC: 0.34438 (Simulation time: 0 hr 8 min 22 sec) 
Heartbeat CPU  0 instructions:  200000000 cycles:  359463762 heartbeat IPC: 0.46140 cumulative IPC: 0.34525 (Simulation time: 0 hr 8 min 25 sec) 
Finished CPU 0 instructions: 100000000 cycles: 289643221 cumulative IPC: 0.34525 (Simulation time: 0 hr 8 min 25 sec) 

ChampSim completed all CPUs

[ROI Statistics]
Core_0_instructions 100000000
Core_0_cycles 289643221
Core_0_IPC 0.34525

Core_0_branch_prediction_accuracy 99.16976
Core_0_branch_MPKI 0.01138
Core_0_average_ROB_occupancy_at_mispredict 253.39016

Core_0_L1D_total_access 50979718
Core_0_L1D_total_hit 50156994
Core_0_L1D_total_miss 822724
Core_0_L1D_loads 34253417
Core_0_L1D_load_hit 33594934
Core_0_L1D_load_miss 658483
Core_0_L1D_RFOs 16726301
Core_0_L1D_RFO_hit 16562060
Core_0_L1D_RFO_miss 164241
Core_0_L1D_prefetches 0
Core_0_L1D_prefetch_hit 0
Core_0_L1D_prefetch_miss 0
Core_0_L1D_writebacks 0
Core_0_L1D_writeback_hit 0
Core_0_L1D_writeback_miss 0
Core_0_L1D_prefetch_requested 0
Core_0_L1D_prefetch_issued 0
Core_0_L1D_prefetch_useful 0
Core_0_L1D_prefetch_useless 0
Core_0_L1D_prefetch_late 0
Core_0_L1D_average_miss_latency 195.87604

Core_0_L1I_total_access 26907275
Core_0_L1I_total_hit 26907275
Core_0_L1I_total_miss 0
Core_0_L1I_loads 26907275
Core_0_L1I_load_hit 26907275
Core_0_L1I_load_miss 0
Core_0_L1I_RFOs 0
Core_0_L1I_RFO_hit 0
Core_0_L1I_RFO_miss 0
Core_0_L1I_prefetches 0
Core_0_L1I_prefetch_hit 0
Core_0_L1I_prefetch_miss 0
Core_0_L1I_writebacks 0
Core_0_L1I_writeback_hit 0
Core_0_L1I_writeback_miss 0
Core_0_L1I_prefetch_requested 0
Core_0_L1I_prefetch_issued 0
Core_0_L1I_prefetch_useful 0
Core_0_L1I_prefetch_useless 0
Core_0_L1I_prefetch_late 0
Core_0_L1I_average_miss_latency -nan

Core_0_L2C_total_access 993865
Core_0_L2C_total_hit 450986
Core_0_L2C_total_miss 542879
Core_0_L2C_loads 658483
Core_0_L2C_load_hit 280019
Core_0_L2C_load_miss 378464
Core_0_L2C_RFOs 164241
Core_0_L2C_RFO_hit 16
Core_0_L2C_RFO_miss 164225
Core_0_L2C_prefetches 0
Core_0_L2C_prefetch_hit 0
Core_0_L2C_prefetch_miss 0
Core_0_L2C_writebacks 171141
Core_0_L2C_writeback_hit 170951
Core_0_L2C_writeback_miss 190
Core_0_L2C_prefetch_requested 0
Core_0_L2C_prefetch_issued 0
Core_0_L2C_prefetch_useful 0
Core_0_L2C_prefetch_useless 0
Core_0_L2C_prefetch_late 0
Core_0_L2C_average_miss_latency 243.54878

Core_0_LLC_total_access 706524
Core_0_LLC_total_hit 182048
Core_0_LLC_total_miss 524476
Core_0_LLC_loads 378464
Core_0_LLC_load_hit 23330
Core_0_LLC_load_miss 355134
Core_0_LLC_RFOs 164225
Core_0_LLC_RFO_hit 1
Core_0_LLC_RFO_miss 164224
Core_0_LLC_prefetches 0
Core_0_LLC_prefetch_hit 0
Core_0_LLC_prefetch_miss 0
Core_0_LLC_writebacks 163835
Core_0_LLC_writeback_hit 158717
Core_0_LLC_writeback_miss 5118
Core_0_LLC_prefetch_requested 0
Core_0_LLC_prefetch_issued 0
Core_0_LLC_prefetch_useful 0
Core_0_LLC_prefetch_useless 0
Core_0_LLC_prefetch_late 0
Core_0_LLC_average_miss_latency 197.36365

Core_0_major_page_fault 0
Core_0_minor_page_fault 8761

Channel_0_RQ_row_buffer_hit 109047
Channel_0_RQ_row_buffer_miss 410309
Channel_0_WQ_row_buffer_hit 22903
Channel_0_WQ_row_buffer_miss 134313
Channel_0_WQ_full 0
Channel_0_dbus_congested 134533

avg_congested_cycle 10
