*************************************************
   ChampSim Multicore Out-of-Order Simulator
   Last compiled: Dec 22 2023 17:51:25
*************************************************

trace_0 ./test_trace/436.cactusADM-1804B.champsimtrace.xz
CPU 0 L2C IP-based stride prefetcher
LLC Next Line Prefetcher
warmup_instructions 100000000
simulation_instructions 100000000
champsim_seed 271

num_cpus 1
cpu_freq 4000
dram_io_freq 2400
page_size 4096
block_size 64
max_read_per_cycle 8
max_fill_per_cycle 1
dram_channels 1
dram_ranks 1
dram_banks 8
dram_rows 65536
dram_columns 128
dram_row_size 8
dram_size 4096
dram_pages 1048576

fetch_width 6
decode_width 6
exec_width 4
lq_width 2
sq_width 2
retire_width 4
scheduler_size 128
branch_mispredict_penalty 20
rob_size 256
lq_size 72
sq_size 56
num_instr_destinations_sparc 4
num_instr_destinations 2
num_instr_sources 4

itlb_set 16
itlb_way 8
itlb_rq_size 16
itlb_wq_size 16
itlb_pq_size 0
itlb_mshr_size 8
itlb_latency 1

dtlb_set 16
dtlb_way 4
dtlb_rq_size 16
dtlb_wq_size 16
dtlb_pq_size 0
dtlb_mshr_size 8
dtlb_latency 1

stlb_set 128
stlb_way 12
stlb_rq_size 32
stlb_wq_size 32
stlb_pq_size 0
stlb_mshr_size 16
stlb_latency 8

l1i_size 32
l1i_set 64
l1i_way 8
l1i_rq_size 64
l1i_wq_size 64
l1i_pq_size 8
l1i_mshr_size 8
l1i_latency 1

l1d_size 32
l1d_set 64
l1d_way 8
l1d_rq_size 64
l1d_wq_size 64
l1d_pq_size 8
l1d_mshr_size 16
l1d_latency 4

l2c_size 512
l2c_set 1024
l2c_way 8
l2c_rq_size 32
l2c_wq_size 32
l2c_pq_size 16
l2c_mshr_size 32
l2c_latency 10

llc_size 2048
llc_set 2048
llc_way 16
llc_rq_size 32
llc_wq_size 32
llc_pq_size 32
llc_mshr_size 64
llc_latency 20

dram_channel_width 8
dram_wq_size 64
dram_rq_size 64
tRP 15
tRCD 15
tCAS 12.5
dram_dbus_turn_around_time 30
dram_write_high_wm 56
dram_write_low_wm 48
min_dram_writes_per_switch 16
dram_mtps 2400
dram_dbus_return_time 13


Heartbeat CPU  0 instructions:    1000000 cycles:     702369 heartbeat IPC: 1.42375 cumulative IPC: 1.42375 (Simulation time: 0 hr 0 min 2 sec) 
Heartbeat CPU  0 instructions:    2000000 cycles:    1404556 heartbeat IPC: 1.42412 cumulative IPC: 1.42394 (Simulation time: 0 hr 0 min 4 sec) 
Heartbeat CPU  0 instructions:    3000000 cycles:    2106847 heartbeat IPC: 1.42391 cumulative IPC: 1.42393 (Simulation time: 0 hr 0 min 6 sec) 
Heartbeat CPU  0 instructions:    4000000 cycles:    2809163 heartbeat IPC: 1.42386 cumulative IPC: 1.42391 (Simulation time: 0 hr 0 min 7 sec) 
Heartbeat CPU  0 instructions:    5000000 cycles:    3511354 heartbeat IPC: 1.42411 cumulative IPC: 1.42395 (Simulation time: 0 hr 0 min 9 sec) 
Heartbeat CPU  0 instructions:    6000000 cycles:    4213672 heartbeat IPC: 1.42386 cumulative IPC: 1.42394 (Simulation time: 0 hr 0 min 11 sec) 
Heartbeat CPU  0 instructions:    7000001 cycles:    4916060 heartbeat IPC: 1.42372 cumulative IPC: 1.42390 (Simulation time: 0 hr 0 min 13 sec) 
Heartbeat CPU  0 instructions:    8000000 cycles:    5618162 heartbeat IPC: 1.42429 cumulative IPC: 1.42395 (Simulation time: 0 hr 0 min 14 sec) 
Heartbeat CPU  0 instructions:    9000001 cycles:    6320656 heartbeat IPC: 1.42350 cumulative IPC: 1.42390 (Simulation time: 0 hr 0 min 16 sec) 
Heartbeat CPU  0 instructions:   10000000 cycles:    7022824 heartbeat IPC: 1.42416 cumulative IPC: 1.42393 (Simulation time: 0 hr 0 min 18 sec) 
Heartbeat CPU  0 instructions:   11000002 cycles:    7725032 heartbeat IPC: 1.42408 cumulative IPC: 1.42394 (Simulation time: 0 hr 0 min 20 sec) 
Heartbeat CPU  0 instructions:   12000000 cycles:    8427158 heartbeat IPC: 1.42424 cumulative IPC: 1.42397 (Simulation time: 0 hr 0 min 22 sec) 
Heartbeat CPU  0 instructions:   13000000 cycles:    9129693 heartbeat IPC: 1.42342 cumulative IPC: 1.42393 (Simulation time: 0 hr 0 min 23 sec) 
Heartbeat CPU  0 instructions:   14000002 cycles:    9831947 heartbeat IPC: 1.42399 cumulative IPC: 1.42393 (Simulation time: 0 hr 0 min 25 sec) 
Heartbeat CPU  0 instructions:   15000002 cycles:   10533860 heartbeat IPC: 1.42468 cumulative IPC: 1.42398 (Simulation time: 0 hr 0 min 27 sec) 
Heartbeat CPU  0 instructions:   16000000 cycles:   11236387 heartbeat IPC: 1.42343 cumulative IPC: 1.42395 (Simulation time: 0 hr 0 min 29 sec) 
Heartbeat CPU  0 instructions:   17000000 cycles:   11938927 heartbeat IPC: 1.42341 cumulative IPC: 1.42391 (Simulation time: 0 hr 0 min 30 sec) 
Heartbeat CPU  0 instructions:   18000001 cycles:   12599488 heartbeat IPC: 1.51387 cumulative IPC: 1.42863 (Simulation time: 0 hr 0 min 32 sec) 
Heartbeat CPU  0 instructions:   19000000 cycles:   13233980 heartbeat IPC: 1.57606 cumulative IPC: 1.43570 (Simulation time: 0 hr 0 min 34 sec) 
Heartbeat CPU  0 instructions:   20000000 cycles:   13936516 heartbeat IPC: 1.42341 cumulative IPC: 1.43508 (Simulation time: 0 hr 0 min 36 sec) 
Heartbeat CPU  0 instructions:   21000000 cycles:   14638876 heartbeat IPC: 1.42377 cumulative IPC: 1.43454 (Simulation time: 0 hr 0 min 37 sec) 
Heartbeat CPU  0 instructions:   22000002 cycles:   15341164 heartbeat IPC: 1.42392 cumulative IPC: 1.43405 (Simulation time: 0 hr 0 min 39 sec) 
Heartbeat CPU  0 instructions:   23000001 cycles:   16043529 heartbeat IPC: 1.42376 cumulative IPC: 1.43360 (Simulation time: 0 hr 0 min 41 sec) 
Heartbeat CPU  0 instructions:   24000000 cycles:   16745622 heartbeat IPC: 1.42431 cumulative IPC: 1.43321 (Simulation time: 0 hr 0 min 43 sec) 
Heartbeat CPU  0 instructions:   25000001 cycles:   17447912 heartbeat IPC: 1.42391 cumulative IPC: 1.43284 (Simulation time: 0 hr 0 min 44 sec) 
Heartbeat CPU  0 instructions:   26000003 cycles:   18150528 heartbeat IPC: 1.42326 cumulative IPC: 1.43247 (Simulation time: 0 hr 0 min 46 sec) 
Heartbeat CPU  0 instructions:   27000003 cycles:   18852703 heartbeat IPC: 1.42415 cumulative IPC: 1.43216 (Simulation time: 0 hr 0 min 48 sec) 
Heartbeat CPU  0 instructions:   28000000 cycles:   19554831 heartbeat IPC: 1.42424 cumulative IPC: 1.43187 (Simulation time: 0 hr 0 min 50 sec) 
Heartbeat CPU  0 instructions:   29000000 cycles:   20257232 heartbeat IPC: 1.42369 cumulative IPC: 1.43159 (Simulation time: 0 hr 0 min 52 sec) 
Heartbeat CPU  0 instructions:   30000003 cycles:   20959566 heartbeat IPC: 1.42383 cumulative IPC: 1.43133 (Simulation time: 0 hr 0 min 53 sec) 
Heartbeat CPU  0 instructions:   31000003 cycles:   21661517 heartbeat IPC: 1.42460 cumulative IPC: 1.43111 (Simulation time: 0 hr 0 min 55 sec) 
Heartbeat CPU  0 instructions:   32000000 cycles:   22363581 heartbeat IPC: 1.42437 cumulative IPC: 1.43090 (Simulation time: 0 hr 0 min 57 sec) 
Heartbeat CPU  0 instructions:   33000001 cycles:   23066314 heartbeat IPC: 1.42302 cumulative IPC: 1.43066 (Simulation time: 0 hr 0 min 59 sec) 
Heartbeat CPU  0 instructions:   34000000 cycles:   23768419 heartbeat IPC: 1.42429 cumulative IPC: 1.43047 (Simulation time: 0 hr 1 min 0 sec) 
Heartbeat CPU  0 instructions:   35000001 cycles:   24470647 heartbeat IPC: 1.42404 cumulative IPC: 1.43029 (Simulation time: 0 hr 1 min 2 sec) 
Heartbeat CPU  0 instructions:   36000000 cycles:   25172895 heartbeat IPC: 1.42400 cumulative IPC: 1.43011 (Simulation time: 0 hr 1 min 4 sec) 
Heartbeat CPU  0 instructions:   37000000 cycles:   25875460 heartbeat IPC: 1.42336 cumulative IPC: 1.42993 (Simulation time: 0 hr 1 min 6 sec) 
Heartbeat CPU  0 instructions:   38000001 cycles:   26577651 heartbeat IPC: 1.42412 cumulative IPC: 1.42977 (Simulation time: 0 hr 1 min 8 sec) 
Heartbeat CPU  0 instructions:   39000000 cycles:   27279896 heartbeat IPC: 1.42400 cumulative IPC: 1.42962 (Simulation time: 0 hr 1 min 9 sec) 
Heartbeat CPU  0 instructions:   40000000 cycles:   27982124 heartbeat IPC: 1.42404 cumulative IPC: 1.42948 (Simulation time: 0 hr 1 min 11 sec) 
Heartbeat CPU  0 instructions:   41000000 cycles:   28586333 heartbeat IPC: 1.65506 cumulative IPC: 1.43425 (Simulation time: 0 hr 1 min 13 sec) 
Heartbeat CPU  0 instructions:   42000002 cycles:   29277589 heartbeat IPC: 1.44664 cumulative IPC: 1.43454 (Simulation time: 0 hr 1 min 15 sec) 
Heartbeat CPU  0 instructions:   43000002 cycles:   29979977 heartbeat IPC: 1.42371 cumulative IPC: 1.43429 (Simulation time: 0 hr 1 min 16 sec) 
Heartbeat CPU  0 instructions:   44000000 cycles:   30682394 heartbeat IPC: 1.42365 cumulative IPC: 1.43405 (Simulation time: 0 hr 1 min 18 sec) 
Heartbeat CPU  0 instructions:   45000003 cycles:   31384664 heartbeat IPC: 1.42396 cumulative IPC: 1.43382 (Simulation time: 0 hr 1 min 20 sec) 
Heartbeat CPU  0 instructions:   46000003 cycles:   32086849 heartbeat IPC: 1.42413 cumulative IPC: 1.43361 (Simulation time: 0 hr 1 min 22 sec) 
Heartbeat CPU  0 instructions:   47000000 cycles:   32789025 heartbeat IPC: 1.42414 cumulative IPC: 1.43341 (Simulation time: 0 hr 1 min 23 sec) 
Heartbeat CPU  0 instructions:   48000000 cycles:   33491621 heartbeat IPC: 1.42329 cumulative IPC: 1.43319 (Simulation time: 0 hr 1 min 25 sec) 
Heartbeat CPU  0 instructions:   49000000 cycles:   34193610 heartbeat IPC: 1.42452 cumulative IPC: 1.43302 (Simulation time: 0 hr 1 min 27 sec) 
Heartbeat CPU  0 instructions:   50000000 cycles:   34895914 heartbeat IPC: 1.42388 cumulative IPC: 1.43283 (Simulation time: 0 hr 1 min 29 sec) 
Heartbeat CPU  0 instructions:   51000000 cycles:   35598399 heartbeat IPC: 1.42352 cumulative IPC: 1.43265 (Simulation time: 0 hr 1 min 31 sec) 
Heartbeat CPU  0 instructions:   52000000 cycles:   36300566 heartbeat IPC: 1.42416 cumulative IPC: 1.43248 (Simulation time: 0 hr 1 min 32 sec) 
Heartbeat CPU  0 instructions:   53000000 cycles:   37002941 heartbeat IPC: 1.42374 cumulative IPC: 1.43232 (Simulation time: 0 hr 1 min 34 sec) 
Heartbeat CPU  0 instructions:   54000001 cycles:   37705008 heartbeat IPC: 1.42437 cumulative IPC: 1.43217 (Simulation time: 0 hr 1 min 36 sec) 
Heartbeat CPU  0 instructions:   55000001 cycles:   38407269 heartbeat IPC: 1.42397 cumulative IPC: 1.43202 (Simulation time: 0 hr 1 min 38 sec) 
Heartbeat CPU  0 instructions:   56000000 cycles:   39109695 heartbeat IPC: 1.42364 cumulative IPC: 1.43187 (Simulation time: 0 hr 1 min 39 sec) 
Heartbeat CPU  0 instructions:   57000000 cycles:   39812150 heartbeat IPC: 1.42358 cumulative IPC: 1.43172 (Simulation time: 0 hr 1 min 41 sec) 
Heartbeat CPU  0 instructions:   58000003 cycles:   40514450 heartbeat IPC: 1.42390 cumulative IPC: 1.43159 (Simulation time: 0 hr 1 min 43 sec) 
Heartbeat CPU  0 instructions:   59000000 cycles:   41216579 heartbeat IPC: 1.42424 cumulative IPC: 1.43146 (Simulation time: 0 hr 1 min 45 sec) 
Heartbeat CPU  0 instructions:   60000000 cycles:   41918993 heartbeat IPC: 1.42366 cumulative IPC: 1.43133 (Simulation time: 0 hr 1 min 47 sec) 
Heartbeat CPU  0 instructions:   61000000 cycles:   42621158 heartbeat IPC: 1.42417 cumulative IPC: 1.43121 (Simulation time: 0 hr 1 min 48 sec) 
Heartbeat CPU  0 instructions:   62000002 cycles:   43323391 heartbeat IPC: 1.42403 cumulative IPC: 1.43110 (Simulation time: 0 hr 1 min 50 sec) 
Heartbeat CPU  0 instructions:   63000000 cycles:   43970140 heartbeat IPC: 1.54619 cumulative IPC: 1.43279 (Simulation time: 0 hr 1 min 52 sec) 
Heartbeat CPU  0 instructions:   64000000 cycles:   44620743 heartbeat IPC: 1.53704 cumulative IPC: 1.43431 (Simulation time: 0 hr 1 min 54 sec) 
Heartbeat CPU  0 instructions:   65000000 cycles:   45322789 heartbeat IPC: 1.42441 cumulative IPC: 1.43416 (Simulation time: 0 hr 1 min 55 sec) 
Heartbeat CPU  0 instructions:   66000001 cycles:   46024861 heartbeat IPC: 1.42436 cumulative IPC: 1.43401 (Simulation time: 0 hr 1 min 57 sec) 
Heartbeat CPU  0 instructions:   67000002 cycles:   46726948 heartbeat IPC: 1.42433 cumulative IPC: 1.43386 (Simulation time: 0 hr 1 min 59 sec) 
Heartbeat CPU  0 instructions:   68000000 cycles:   47429323 heartbeat IPC: 1.42374 cumulative IPC: 1.43371 (Simulation time: 0 hr 2 min 1 sec) 
Heartbeat CPU  0 instructions:   69000000 cycles:   48131523 heartbeat IPC: 1.42410 cumulative IPC: 1.43357 (Simulation time: 0 hr 2 min 2 sec) 
Heartbeat CPU  0 instructions:   70000002 cycles:   48833638 heartbeat IPC: 1.42427 cumulative IPC: 1.43344 (Simulation time: 0 hr 2 min 4 sec) 
Heartbeat CPU  0 instructions:   71000003 cycles:   49536237 heartbeat IPC: 1.42329 cumulative IPC: 1.43329 (Simulation time: 0 hr 2 min 6 sec) 
Heartbeat CPU  0 instructions:   72000000 cycles:   50238286 heartbeat IPC: 1.42440 cumulative IPC: 1.43317 (Simulation time: 0 hr 2 min 8 sec) 
Heartbeat CPU  0 instructions:   73000001 cycles:   50940420 heartbeat IPC: 1.42423 cumulative IPC: 1.43305 (Simulation time: 0 hr 2 min 9 sec) 
Heartbeat CPU  0 instructions:   74000003 cycles:   51642758 heartbeat IPC: 1.42382 cumulative IPC: 1.43292 (Simulation time: 0 hr 2 min 11 sec) 
Heartbeat CPU  0 instructions:   75000002 cycles:   52345409 heartbeat IPC: 1.42318 cumulative IPC: 1.43279 (Simulation time: 0 hr 2 min 13 sec) 
Heartbeat CPU  0 instructions:   76000000 cycles:   53047588 heartbeat IPC: 1.42414 cumulative IPC: 1.43268 (Simulation time: 0 hr 2 min 15 sec) 
Heartbeat CPU  0 instructions:   77000003 cycles:   53750182 heartbeat IPC: 1.42330 cumulative IPC: 1.43255 (Simulation time: 0 hr 2 min 17 sec) 
Heartbeat CPU  0 instructions:   78000001 cycles:   54452664 heartbeat IPC: 1.42352 cumulative IPC: 1.43244 (Simulation time: 0 hr 2 min 18 sec) 
Heartbeat CPU  0 instructions:   79000001 cycles:   55154563 heartbeat IPC: 1.42471 cumulative IPC: 1.43234 (Simulation time: 0 hr 2 min 20 sec) 
Heartbeat CPU  0 instructions:   80000000 cycles:   55856573 heartbeat IPC: 1.42448 cumulative IPC: 1.43224 (Simulation time: 0 hr 2 min 22 sec) 
Heartbeat CPU  0 instructions:   81000002 cycles:   56558937 heartbeat IPC: 1.42377 cumulative IPC: 1.43213 (Simulation time: 0 hr 2 min 24 sec) 
Heartbeat CPU  0 instructions:   82000003 cycles:   57261169 heartbeat IPC: 1.42403 cumulative IPC: 1.43204 (Simulation time: 0 hr 2 min 25 sec) 
Heartbeat CPU  0 instructions:   83000001 cycles:   57963404 heartbeat IPC: 1.42402 cumulative IPC: 1.43194 (Simulation time: 0 hr 2 min 27 sec) 
Heartbeat CPU  0 instructions:   84000000 cycles:   58665602 heartbeat IPC: 1.42410 cumulative IPC: 1.43184 (Simulation time: 0 hr 2 min 29 sec) 
Heartbeat CPU  0 instructions:   85000000 cycles:   59354102 heartbeat IPC: 1.45243 cumulative IPC: 1.43208 (Simulation time: 0 hr 2 min 31 sec) 
Heartbeat CPU  0 instructions:   86000002 cycles:   59962331 heartbeat IPC: 1.64412 cumulative IPC: 1.43423 (Simulation time: 0 hr 2 min 32 sec) 
Heartbeat CPU  0 instructions:   87000002 cycles:   60664790 heartbeat IPC: 1.42357 cumulative IPC: 1.43411 (Simulation time: 0 hr 2 min 34 sec) 
Heartbeat CPU  0 instructions:   88000000 cycles:   61367424 heartbeat IPC: 1.42321 cumulative IPC: 1.43399 (Simulation time: 0 hr 2 min 36 sec) 
Heartbeat CPU  0 instructions:   89000001 cycles:   62069448 heartbeat IPC: 1.42445 cumulative IPC: 1.43388 (Simulation time: 0 hr 2 min 38 sec) 
Heartbeat CPU  0 instructions:   90000003 cycles:   62771781 heartbeat IPC: 1.42383 cumulative IPC: 1.43377 (Simulation time: 0 hr 2 min 40 sec) 
Heartbeat CPU  0 instructions:   91000003 cycles:   63474175 heartbeat IPC: 1.42370 cumulative IPC: 1.43365 (Simulation time: 0 hr 2 min 41 sec) 
Heartbeat CPU  0 instructions:   92000000 cycles:   64176404 heartbeat IPC: 1.42403 cumulative IPC: 1.43355 (Simulation time: 0 hr 2 min 43 sec) 
Heartbeat CPU  0 instructions:   93000002 cycles:   64878738 heartbeat IPC: 1.42383 cumulative IPC: 1.43344 (Simulation time: 0 hr 2 min 45 sec) 
Heartbeat CPU  0 instructions:   94000002 cycles:   65580730 heartbeat IPC: 1.42452 cumulative IPC: 1.43335 (Simulation time: 0 hr 2 min 47 sec) 
Heartbeat CPU  0 instructions:   95000003 cycles:   66282896 heartbeat IPC: 1.42417 cumulative IPC: 1.43325 (Simulation time: 0 hr 2 min 48 sec) 
Heartbeat CPU  0 instructions:   96000000 cycles:   66985193 heartbeat IPC: 1.42389 cumulative IPC: 1.43315 (Simulation time: 0 hr 2 min 50 sec) 
Heartbeat CPU  0 instructions:   97000000 cycles:   67687524 heartbeat IPC: 1.42383 cumulative IPC: 1.43306 (Simulation time: 0 hr 2 min 52 sec) 
Heartbeat CPU  0 instructions:   98000002 cycles:   68389695 heartbeat IPC: 1.42416 cumulative IPC: 1.43296 (Simulation time: 0 hr 2 min 54 sec) 
Heartbeat CPU  0 instructions:   99000003 cycles:   69091883 heartbeat IPC: 1.42412 cumulative IPC: 1.43287 (Simulation time: 0 hr 2 min 56 sec) 
Heartbeat CPU  0 instructions:  100000000 cycles:   69794234 heartbeat IPC: 1.42379 cumulative IPC: 1.43278 (Simulation time: 0 hr 2 min 57 sec) 

Warmup complete CPU  0 instructions:  100000001 cycles:   69794254 (Simulation time: 0 hr 2 min 57 sec) 

Heartbeat CPU  0 instructions:  101000000 cycles:   71718847 heartbeat IPC: 0.51958 cumulative IPC: 0.51959 (Simulation time: 0 hr 2 min 59 sec) 
Heartbeat CPU  0 instructions:  102000003 cycles:   73474743 heartbeat IPC: 0.56951 cumulative IPC: 0.54341 (Simulation time: 0 hr 3 min 1 sec) 
Heartbeat CPU  0 instructions:  103000003 cycles:   75340629 heartbeat IPC: 0.53594 cumulative IPC: 0.54089 (Simulation time: 0 hr 3 min 3 sec) 
Heartbeat CPU  0 instructions:  104000000 cycles:   77254581 heartbeat IPC: 0.52248 cumulative IPC: 0.53617 (Simulation time: 0 hr 3 min 5 sec) 
Heartbeat CPU  0 instructions:  105000002 cycles:   79089989 heartbeat IPC: 0.54484 cumulative IPC: 0.53788 (Simulation time: 0 hr 3 min 7 sec) 
Heartbeat CPU  0 instructions:  106000000 cycles:   80885522 heartbeat IPC: 0.55694 cumulative IPC: 0.54097 (Simulation time: 0 hr 3 min 9 sec) 
Heartbeat CPU  0 instructions:  107000003 cycles:   82796055 heartbeat IPC: 0.52342 cumulative IPC: 0.53839 (Simulation time: 0 hr 3 min 11 sec) 
Heartbeat CPU  0 instructions:  108000000 cycles:   93575239 heartbeat IPC: 0.09277 cumulative IPC: 0.33640 (Simulation time: 0 hr 3 min 14 sec) 
Heartbeat CPU  0 instructions:  109000003 cycles:  100376257 heartbeat IPC: 0.14704 cumulative IPC: 0.29429 (Simulation time: 0 hr 3 min 16 sec) 
Heartbeat CPU  0 instructions:  110000001 cycles:  102284830 heartbeat IPC: 0.52395 cumulative IPC: 0.30778 (Simulation time: 0 hr 3 min 18 sec) 
Heartbeat CPU  0 instructions:  111000000 cycles:  104200550 heartbeat IPC: 0.52200 cumulative IPC: 0.31971 (Simulation time: 0 hr 3 min 20 sec) 
Heartbeat CPU  0 instructions:  112000000 cycles:  105967098 heartbeat IPC: 0.56608 cumulative IPC: 0.33174 (Simulation time: 0 hr 3 min 22 sec) 
Heartbeat CPU  0 instructions:  113000000 cycles:  107835352 heartbeat IPC: 0.53526 cumulative IPC: 0.34174 (Simulation time: 0 hr 3 min 24 sec) 
Heartbeat CPU  0 instructions:  114000000 cycles:  109761313 heartbeat IPC: 0.51922 cumulative IPC: 0.35029 (Simulation time: 0 hr 3 min 26 sec) 
Heartbeat CPU  0 instructions:  115000001 cycles:  111595124 heartbeat IPC: 0.54531 cumulative IPC: 0.35884 (Simulation time: 0 hr 3 min 28 sec) 
Heartbeat CPU  0 instructions:  116000000 cycles:  113389886 heartbeat IPC: 0.55718 cumulative IPC: 0.36701 (Simulation time: 0 hr 3 min 30 sec) 
Heartbeat CPU  0 instructions:  117000003 cycles:  115307567 heartbeat IPC: 0.52146 cumulative IPC: 0.37352 (Simulation time: 0 hr 3 min 32 sec) 
Heartbeat CPU  0 instructions:  118000002 cycles:  117210159 heartbeat IPC: 0.52560 cumulative IPC: 0.37962 (Simulation time: 0 hr 3 min 34 sec) 
Heartbeat CPU  0 instructions:  119000002 cycles:  118954224 heartbeat IPC: 0.57337 cumulative IPC: 0.38649 (Simulation time: 0 hr 3 min 36 sec) 
Heartbeat CPU  0 instructions:  120000000 cycles:  120858358 heartbeat IPC: 0.52517 cumulative IPC: 0.39166 (Simulation time: 0 hr 3 min 38 sec) 
Heartbeat CPU  0 instructions:  121000003 cycles:  122772600 heartbeat IPC: 0.52240 cumulative IPC: 0.39639 (Simulation time: 0 hr 3 min 40 sec) 
Heartbeat CPU  0 instructions:  122000002 cycles:  124550607 heartbeat IPC: 0.56243 cumulative IPC: 0.40178 (Simulation time: 0 hr 3 min 42 sec) 
Heartbeat CPU  0 instructions:  123000002 cycles:  126402880 heartbeat IPC: 0.53988 cumulative IPC: 0.40630 (Simulation time: 0 hr 3 min 44 sec) 
Heartbeat CPU  0 instructions:  124000000 cycles:  128321163 heartbeat IPC: 0.52130 cumulative IPC: 0.41007 (Simulation time: 0 hr 3 min 46 sec) 
Heartbeat CPU  0 instructions:  125000000 cycles:  130177923 heartbeat IPC: 0.53857 cumulative IPC: 0.41402 (Simulation time: 0 hr 3 min 48 sec) 
Heartbeat CPU  0 instructions:  126000002 cycles:  131969268 heartbeat IPC: 0.55824 cumulative IPC: 0.41817 (Simulation time: 0 hr 3 min 50 sec) 
Heartbeat CPU  0 instructions:  127000002 cycles:  134004592 heartbeat IPC: 0.49132 cumulative IPC: 0.42049 (Simulation time: 0 hr 3 min 52 sec) 
Heartbeat CPU  0 instructions:  128000000 cycles:  135911867 heartbeat IPC: 0.52431 cumulative IPC: 0.42349 (Simulation time: 0 hr 3 min 54 sec) 
Heartbeat CPU  0 instructions:  129000001 cycles:  137653398 heartbeat IPC: 0.57421 cumulative IPC: 0.42736 (Simulation time: 0 hr 3 min 56 sec) 
Heartbeat CPU  0 instructions:  130000000 cycles:  143192944 heartbeat IPC: 0.18052 cumulative IPC: 0.40873 (Simulation time: 0 hr 3 min 58 sec) 
Heartbeat CPU  0 instructions:  131000003 cycles:  155354433 heartbeat IPC: 0.08223 cumulative IPC: 0.36232 (Simulation time: 0 hr 4 min 1 sec) 
Heartbeat CPU  0 instructions:  132000000 cycles:  157133983 heartbeat IPC: 0.56194 cumulative IPC: 0.36639 (Simulation time: 0 hr 4 min 3 sec) 
Heartbeat CPU  0 instructions:  133000000 cycles:  158987566 heartbeat IPC: 0.53950 cumulative IPC: 0.36998 (Simulation time: 0 hr 4 min 5 sec) 
Heartbeat CPU  0 instructions:  134000000 cycles:  160906867 heartbeat IPC: 0.52102 cumulative IPC: 0.37316 (Simulation time: 0 hr 4 min 7 sec) 
Heartbeat CPU  0 instructions:  135000000 cycles:  162761080 heartbeat IPC: 0.53931 cumulative IPC: 0.37648 (Simulation time: 0 hr 4 min 9 sec) 
Heartbeat CPU  0 instructions:  136000000 cycles:  164540225 heartbeat IPC: 0.56207 cumulative IPC: 0.37996 (Simulation time: 0 hr 4 min 11 sec) 
Heartbeat CPU  0 instructions:  137000002 cycles:  166458176 heartbeat IPC: 0.52139 cumulative IPC: 0.38277 (Simulation time: 0 hr 4 min 13 sec) 
Heartbeat CPU  0 instructions:  138000001 cycles:  168365900 heartbeat IPC: 0.52418 cumulative IPC: 0.38551 (Simulation time: 0 hr 4 min 15 sec) 
Heartbeat CPU  0 instructions:  139000001 cycles:  170107368 heartbeat IPC: 0.57423 cumulative IPC: 0.38878 (Simulation time: 0 hr 4 min 17 sec) 
Heartbeat CPU  0 instructions:  140000000 cycles:  172014605 heartbeat IPC: 0.52432 cumulative IPC: 0.39131 (Simulation time: 0 hr 4 min 19 sec) 
Heartbeat CPU  0 instructions:  141000000 cycles:  173932540 heartbeat IPC: 0.52139 cumulative IPC: 0.39371 (Simulation time: 0 hr 4 min 21 sec) 
Heartbeat CPU  0 instructions:  142000001 cycles:  175726664 heartbeat IPC: 0.55738 cumulative IPC: 0.39648 (Simulation time: 0 hr 4 min 23 sec) 
Heartbeat CPU  0 instructions:  143000001 cycles:  177561935 heartbeat IPC: 0.54488 cumulative IPC: 0.39901 (Simulation time: 0 hr 4 min 25 sec) 
Heartbeat CPU  0 instructions:  144000000 cycles:  179481571 heartbeat IPC: 0.52093 cumulative IPC: 0.40114 (Simulation time: 0 hr 4 min 27 sec) 
Heartbeat CPU  0 instructions:  145000000 cycles:  181354452 heartbeat IPC: 0.53394 cumulative IPC: 0.40337 (Simulation time: 0 hr 4 min 29 sec) 
Heartbeat CPU  0 instructions:  146000002 cycles:  183118915 heartbeat IPC: 0.56675 cumulative IPC: 0.40591 (Simulation time: 0 hr 4 min 31 sec) 
Heartbeat CPU  0 instructions:  147000003 cycles:  185033865 heartbeat IPC: 0.52221 cumulative IPC: 0.40785 (Simulation time: 0 hr 4 min 33 sec) 
Heartbeat CPU  0 instructions:  148000000 cycles:  186942263 heartbeat IPC: 0.52400 cumulative IPC: 0.40974 (Simulation time: 0 hr 4 min 35 sec) 
Heartbeat CPU  0 instructions:  149000002 cycles:  188691040 heartbeat IPC: 0.57183 cumulative IPC: 0.41212 (Simulation time: 0 hr 4 min 37 sec) 
Heartbeat CPU  0 instructions:  150000003 cycles:  190584140 heartbeat IPC: 0.52823 cumulative IPC: 0.41394 (Simulation time: 0 hr 4 min 39 sec) 
Heartbeat CPU  0 instructions:  151000003 cycles:  192497616 heartbeat IPC: 0.52261 cumulative IPC: 0.41564 (Simulation time: 0 hr 4 min 41 sec) 
Heartbeat CPU  0 instructions:  152000000 cycles:  194321087 heartbeat IPC: 0.54840 cumulative IPC: 0.41758 (Simulation time: 0 hr 4 min 43 sec) 
Heartbeat CPU  0 instructions:  153000003 cycles:  207191654 heartbeat IPC: 0.07770 cumulative IPC: 0.38574 (Simulation time: 0 hr 4 min 45 sec) 
Heartbeat CPU  0 instructions:  154000000 cycles:  212165909 heartbeat IPC: 0.20103 cumulative IPC: 0.37929 (Simulation time: 0 hr 4 min 47 sec) 
Heartbeat CPU  0 instructions:  155000000 cycles:  214038712 heartbeat IPC: 0.53396 cumulative IPC: 0.38130 (Simulation time: 0 hr 4 min 49 sec) 
Heartbeat CPU  0 instructions:  156000000 cycles:  215800588 heartbeat IPC: 0.56758 cumulative IPC: 0.38355 (Simulation time: 0 hr 4 min 51 sec) 
Heartbeat CPU  0 instructions:  157000001 cycles:  217715674 heartbeat IPC: 0.52217 cumulative IPC: 0.38534 (Simulation time: 0 hr 4 min 53 sec) 
Heartbeat CPU  0 instructions:  158000001 cycles:  219626701 heartbeat IPC: 0.52328 cumulative IPC: 0.38710 (Simulation time: 0 hr 4 min 56 sec) 
Heartbeat CPU  0 instructions:  159000000 cycles:  221373574 heartbeat IPC: 0.57245 cumulative IPC: 0.38924 (Simulation time: 0 hr 4 min 58 sec) 
Heartbeat CPU  0 instructions:  160000000 cycles:  223269959 heartbeat IPC: 0.52732 cumulative IPC: 0.39094 (Simulation time: 0 hr 5 min 0 sec) 
Heartbeat CPU  0 instructions:  161000003 cycles:  225190207 heartbeat IPC: 0.52077 cumulative IPC: 0.39255 (Simulation time: 0 hr 5 min 2 sec) 
Heartbeat CPU  0 instructions:  162000000 cycles:  227002200 heartbeat IPC: 0.55188 cumulative IPC: 0.39438 (Simulation time: 0 hr 5 min 4 sec) 
Heartbeat CPU  0 instructions:  163000003 cycles:  228823446 heartbeat IPC: 0.54908 cumulative IPC: 0.39615 (Simulation time: 0 hr 5 min 6 sec) 
Heartbeat CPU  0 instructions:  164000000 cycles:  230738672 heartbeat IPC: 0.52213 cumulative IPC: 0.39765 (Simulation time: 0 hr 5 min 8 sec) 
Heartbeat CPU  0 instructions:  165000000 cycles:  232636263 heartbeat IPC: 0.52698 cumulative IPC: 0.39916 (Simulation time: 0 hr 5 min 10 sec) 
Heartbeat CPU  0 instructions:  166000001 cycles:  234381706 heartbeat IPC: 0.57292 cumulative IPC: 0.40100 (Simulation time: 0 hr 5 min 12 sec) 
Heartbeat CPU  0 instructions:  167000000 cycles:  236293778 heartbeat IPC: 0.52299 cumulative IPC: 0.40240 (Simulation time: 0 hr 5 min 14 sec) 
Heartbeat CPU  0 instructions:  168000000 cycles:  238207469 heartbeat IPC: 0.52255 cumulative IPC: 0.40377 (Simulation time: 0 hr 5 min 16 sec) 
Heartbeat CPU  0 instructions:  169000001 cycles:  239964772 heartbeat IPC: 0.56905 cumulative IPC: 0.40548 (Simulation time: 0 hr 5 min 18 sec) 
Heartbeat CPU  0 instructions:  170000002 cycles:  241841831 heartbeat IPC: 0.53275 cumulative IPC: 0.40686 (Simulation time: 0 hr 5 min 20 sec) 
Heartbeat CPU  0 instructions:  171000001 cycles:  243762159 heartbeat IPC: 0.52074 cumulative IPC: 0.40812 (Simulation time: 0 hr 5 min 22 sec) 
Heartbeat CPU  0 instructions:  172000000 cycles:  245593116 heartbeat IPC: 0.54616 cumulative IPC: 0.40956 (Simulation time: 0 hr 5 min 24 sec) 
Heartbeat CPU  0 instructions:  173000000 cycles:  247395937 heartbeat IPC: 0.55469 cumulative IPC: 0.41103 (Simulation time: 0 hr 5 min 26 sec) 
Heartbeat CPU  0 instructions:  174000003 cycles:  249315015 heartbeat IPC: 0.52109 cumulative IPC: 0.41221 (Simulation time: 0 hr 5 min 28 sec) 
Heartbeat CPU  0 instructions:  175000000 cycles:  256525783 heartbeat IPC: 0.13868 cumulative IPC: 0.40165 (Simulation time: 0 hr 5 min 30 sec) 
Heartbeat CPU  0 instructions:  176000000 cycles:  266862750 heartbeat IPC: 0.09674 cumulative IPC: 0.38565 (Simulation time: 0 hr 5 min 32 sec) 
Heartbeat CPU  0 instructions:  177000001 cycles:  268846811 heartbeat IPC: 0.50402 cumulative IPC: 0.38683 (Simulation time: 0 hr 5 min 34 sec) 
Heartbeat CPU  0 instructions:  178000003 cycles:  270913928 heartbeat IPC: 0.48377 cumulative IPC: 0.38783 (Simulation time: 0 hr 5 min 36 sec) 
Heartbeat CPU  0 instructions:  179000002 cycles:  272839656 heartbeat IPC: 0.51928 cumulative IPC: 0.38908 (Simulation time: 0 hr 5 min 38 sec) 
Heartbeat CPU  0 instructions:  180000000 cycles:  274744647 heartbeat IPC: 0.52494 cumulative IPC: 0.39034 (Simulation time: 0 hr 5 min 40 sec) 
Heartbeat CPU  0 instructions:  181000003 cycles:  276677534 heartbeat IPC: 0.51736 cumulative IPC: 0.39153 (Simulation time: 0 hr 5 min 42 sec) 
Heartbeat CPU  0 instructions:  182000003 cycles:  278525856 heartbeat IPC: 0.54103 cumulative IPC: 0.39285 (Simulation time: 0 hr 5 min 44 sec) 
Heartbeat CPU  0 instructions:  183000000 cycles:  280357559 heartbeat IPC: 0.54594 cumulative IPC: 0.39418 (Simulation time: 0 hr 5 min 46 sec) 
Heartbeat CPU  0 instructions:  184000000 cycles:  282288705 heartbeat IPC: 0.51783 cumulative IPC: 0.39530 (Simulation time: 0 hr 5 min 48 sec) 
Heartbeat CPU  0 instructions:  185000002 cycles:  284208931 heartbeat IPC: 0.52077 cumulative IPC: 0.39643 (Simulation time: 0 hr 5 min 51 sec) 
Heartbeat CPU  0 instructions:  186000001 cycles:  285988160 heartbeat IPC: 0.56204 cumulative IPC: 0.39779 (Simulation time: 0 hr 5 min 53 sec) 
Heartbeat CPU  0 instructions:  187000000 cycles:  287907700 heartbeat IPC: 0.52096 cumulative IPC: 0.39887 (Simulation time: 0 hr 5 min 55 sec) 
Heartbeat CPU  0 instructions:  188000000 cycles:  289839646 heartbeat IPC: 0.51761 cumulative IPC: 0.39992 (Simulation time: 0 hr 5 min 57 sec) 
Heartbeat CPU  0 instructions:  189000000 cycles:  291630690 heartbeat IPC: 0.55833 cumulative IPC: 0.40120 (Simulation time: 0 hr 5 min 59 sec) 
Heartbeat CPU  0 instructions:  190000000 cycles:  293519624 heartbeat IPC: 0.52940 cumulative IPC: 0.40228 (Simulation time: 0 hr 6 min 1 sec) 
Heartbeat CPU  0 instructions:  191000000 cycles:  295452907 heartbeat IPC: 0.51725 cumulative IPC: 0.40326 (Simulation time: 0 hr 6 min 3 sec) 
Heartbeat CPU  0 instructions:  192000000 cycles:  297315588 heartbeat IPC: 0.53686 cumulative IPC: 0.40436 (Simulation time: 0 hr 6 min 5 sec) 
Heartbeat CPU  0 instructions:  193000001 cycles:  299132250 heartbeat IPC: 0.55046 cumulative IPC: 0.40552 (Simulation time: 0 hr 6 min 7 sec) 
Heartbeat CPU  0 instructions:  194000000 cycles:  301066120 heartbeat IPC: 0.51710 cumulative IPC: 0.40645 (Simulation time: 0 hr 6 min 9 sec) 
Heartbeat CPU  0 instructions:  195000002 cycles:  302985759 heartbeat IPC: 0.52093 cumulative IPC: 0.40739 (Simulation time: 0 hr 6 min 11 sec) 
Heartbeat CPU  0 instructions:  196000000 cycles:  304761212 heartbeat IPC: 0.56324 cumulative IPC: 0.40857 (Simulation time: 0 hr 6 min 13 sec) 
Heartbeat CPU  0 instructions:  197000000 cycles:  306790990 heartbeat IPC: 0.49266 cumulative IPC: 0.40929 (Simulation time: 0 hr 6 min 15 sec) 
Heartbeat CPU  0 instructions:  198000003 cycles:  321161582 heartbeat IPC: 0.06959 cumulative IPC: 0.38987 (Simulation time: 0 hr 6 min 17 sec) 
Heartbeat CPU  0 instructions:  199000001 cycles:  324294822 heartbeat IPC: 0.31916 cumulative IPC: 0.38900 (Simulation time: 0 hr 6 min 19 sec) 
Heartbeat CPU  0 instructions:  200000000 cycles:  326187031 heartbeat IPC: 0.52848 cumulative IPC: 0.39003 (Simulation time: 0 hr 6 min 21 sec) 
Finished CPU 0 instructions: 100000000 cycles: 256392805 cumulative IPC: 0.39003 (Simulation time: 0 hr 6 min 21 sec) 

ChampSim completed all CPUs

[ROI Statistics]
Core_0_instructions 100000000
Core_0_cycles 256392805
Core_0_IPC 0.39003

Core_0_branch_prediction_accuracy 99.16976
Core_0_branch_MPKI 0.01138
Core_0_average_ROB_occupancy_at_mispredict 253.38928

Core_0_L1D_total_access 50844198
Core_0_L1D_total_hit 50021505
Core_0_L1D_total_miss 822693
Core_0_L1D_loads 34156577
Core_0_L1D_load_hit 33498125
Core_0_L1D_load_miss 658452
Core_0_L1D_RFOs 16687621
Core_0_L1D_RFO_hit 16523380
Core_0_L1D_RFO_miss 164241
Core_0_L1D_prefetches 0
Core_0_L1D_prefetch_hit 0
Core_0_L1D_prefetch_miss 0
Core_0_L1D_writebacks 0
Core_0_L1D_writeback_hit 0
Core_0_L1D_writeback_miss 0
Core_0_L1D_prefetch_requested 0
Core_0_L1D_prefetch_issued 0
Core_0_L1D_prefetch_useful 0
Core_0_L1D_prefetch_useless 0
Core_0_L1D_prefetch_late 0
Core_0_L1D_average_miss_latency 109.39713

Core_0_L1I_total_access 26644716
Core_0_L1I_total_hit 26644716
Core_0_L1I_total_miss 0
Core_0_L1I_loads 26644716
Core_0_L1I_load_hit 26644716
Core_0_L1I_load_miss 0
Core_0_L1I_RFOs 0
Core_0_L1I_RFO_hit 0
Core_0_L1I_RFO_miss 0
Core_0_L1I_prefetches 0
Core_0_L1I_prefetch_hit 0
Core_0_L1I_prefetch_miss 0
Core_0_L1I_writebacks 0
Core_0_L1I_writeback_hit 0
Core_0_L1I_writeback_miss 0
Core_0_L1I_prefetch_requested 0
Core_0_L1I_prefetch_issued 0
Core_0_L1I_prefetch_useful 0
Core_0_L1I_prefetch_useless 0
Core_0_L1I_prefetch_late 0
Core_0_L1I_average_miss_latency -nan

Core_0_L2C_total_access 2682500
Core_0_L2C_total_hit 2139075
Core_0_L2C_total_miss 543425
Core_0_L2C_loads 658452
Core_0_L2C_load_hit 634991
Core_0_L2C_load_miss 23461
Core_0_L2C_RFOs 164241
Core_0_L2C_RFO_hit 79
Core_0_L2C_RFO_miss 164162
Core_0_L2C_prefetches 1688671
Core_0_L2C_prefetch_hit 1333059
Core_0_L2C_prefetch_miss 355612
Core_0_L2C_writebacks 171136
Core_0_L2C_writeback_hit 170946
Core_0_L2C_writeback_miss 190
Core_0_L2C_prefetch_requested 3511529
Core_0_L2C_prefetch_issued 3196162
Core_0_L2C_prefetch_useful 669736
Core_0_L2C_prefetch_useless 878
Core_0_L2C_prefetch_late 16
Core_0_L2C_average_miss_latency 167.13648

Core_0_LLC_total_access 1035035
Core_0_LLC_total_hit 491348
Core_0_LLC_total_miss 543687
Core_0_LLC_loads 23445
Core_0_LLC_load_hit 17036
Core_0_LLC_load_miss 6409
Core_0_LLC_RFOs 164162
Core_0_LLC_RFO_hit 23
Core_0_LLC_RFO_miss 164139
Core_0_LLC_prefetches 683547
Core_0_LLC_prefetch_hit 310630
Core_0_LLC_prefetch_miss 372917
Core_0_LLC_writebacks 163881
Core_0_LLC_writeback_hit 163659
Core_0_LLC_writeback_miss 222
Core_0_LLC_prefetch_requested 718374
Core_0_LLC_prefetch_issued 707100
Core_0_LLC_prefetch_useful 54396
Core_0_LLC_prefetch_useless 653595
Core_0_LLC_prefetch_late 15
Core_0_LLC_average_miss_latency 237.51319

Core_0_major_page_fault 0
Core_0_minor_page_fault 8761

CPU 0 L2C PC-based stride prefetcher final stats
LLC Next Line Prefetcher Final Stats: none
Channel_0_RQ_row_buffer_hit 140922
Channel_0_RQ_row_buffer_miss 402543
Channel_0_WQ_row_buffer_hit 20636
Channel_0_WQ_row_buffer_miss 134987
Channel_0_WQ_full 0
Channel_0_dbus_congested 186348

avg_congested_cycle 10
