*************************************************
   ChampSim Multicore Out-of-Order Simulator
   Last compiled: Dec 22 2023 22:45:36
*************************************************

trace_0 ./test_trace/436.cactusADM-1804B.champsimtrace.xz
Initialize DRRIP state
Assign rand_sets[0]: 454  LLC: 2048
rand_sets[0]: 454
Assign rand_sets[1]: 1662  LLC: 2048
rand_sets[1]: 1662
Assign rand_sets[2]: 1921  LLC: 2048
rand_sets[2]: 1921
Assign rand_sets[3]: 1131  LLC: 2048
rand_sets[3]: 1131
Assign rand_sets[4]: 331  LLC: 2048
rand_sets[4]: 331
Assign rand_sets[5]: 1531  LLC: 2048
rand_sets[5]: 1531
Assign rand_sets[6]: 482  LLC: 2048
rand_sets[6]: 482
Assign rand_sets[7]: 1275  LLC: 2048
rand_sets[7]: 1275
Assign rand_sets[8]: 1876  LLC: 2048
rand_sets[8]: 1876
Assign rand_sets[9]: 2038  LLC: 2048
rand_sets[9]: 2038
Assign rand_sets[10]: 701  LLC: 2048
rand_sets[10]: 701
Assign rand_sets[11]: 479  LLC: 2048
rand_sets[11]: 479
Assign rand_sets[12]: 892  LLC: 2048
rand_sets[12]: 892
Assign rand_sets[13]: 1820  LLC: 2048
rand_sets[13]: 1820
Assign rand_sets[14]: 1505  LLC: 2048
rand_sets[14]: 1505
Assign rand_sets[15]: 1159  LLC: 2048
rand_sets[15]: 1159
Assign rand_sets[16]: 513  LLC: 2048
rand_sets[16]: 513
Assign rand_sets[17]: 703  LLC: 2048
rand_sets[17]: 703
Assign rand_sets[18]: 561  LLC: 2048
rand_sets[18]: 561
Assign rand_sets[19]: 990  LLC: 2048
rand_sets[19]: 990
Assign rand_sets[20]: 342  LLC: 2048
rand_sets[20]: 342
Assign rand_sets[21]: 882  LLC: 2048
rand_sets[21]: 882
Assign rand_sets[22]: 15  LLC: 2048
rand_sets[22]: 15
Assign rand_sets[23]: 71  LLC: 2048
rand_sets[23]: 71
Assign rand_sets[24]: 1127  LLC: 2048
rand_sets[24]: 1127
Assign rand_sets[25]: 1382  LLC: 2048
rand_sets[25]: 1382
Assign rand_sets[26]: 647  LLC: 2048
rand_sets[26]: 647
Assign rand_sets[27]: 857  LLC: 2048
rand_sets[27]: 857
Assign rand_sets[28]: 1450  LLC: 2048
rand_sets[28]: 1450
Assign rand_sets[29]: 1160  LLC: 2048
rand_sets[29]: 1160
Assign rand_sets[30]: 1852  LLC: 2048
rand_sets[30]: 1852
Assign rand_sets[31]: 1881  LLC: 2048
rand_sets[31]: 1881
Assign rand_sets[32]: 1770  LLC: 2048
rand_sets[32]: 1770
Assign rand_sets[33]: 1622  LLC: 2048
rand_sets[33]: 1622
Assign rand_sets[34]: 275  LLC: 2048
rand_sets[34]: 275
Assign rand_sets[35]: 635  LLC: 2048
rand_sets[35]: 635
Assign rand_sets[36]: 466  LLC: 2048
rand_sets[36]: 466
Assign rand_sets[37]: 1413  LLC: 2048
rand_sets[37]: 1413
Assign rand_sets[38]: 417  LLC: 2048
rand_sets[38]: 417
Assign rand_sets[39]: 472  LLC: 2048
rand_sets[39]: 472
Assign rand_sets[40]: 1340  LLC: 2048
rand_sets[40]: 1340
Assign rand_sets[41]: 852  LLC: 2048
rand_sets[41]: 852
Assign rand_sets[42]: 1365  LLC: 2048
rand_sets[42]: 1365
Assign rand_sets[43]: 47  LLC: 2048
rand_sets[43]: 47
Assign rand_sets[44]: 823  LLC: 2048
rand_sets[44]: 823
Assign rand_sets[45]: 686  LLC: 2048
rand_sets[45]: 686
Assign rand_sets[46]: 1637  LLC: 2048
rand_sets[46]: 1637
Assign rand_sets[47]: 1115  LLC: 2048
rand_sets[47]: 1115
Assign rand_sets[48]: 986  LLC: 2048
rand_sets[48]: 986
Assign rand_sets[49]: 258  LLC: 2048
rand_sets[49]: 258
Assign rand_sets[50]: 633  LLC: 2048
rand_sets[50]: 633
Assign rand_sets[51]: 920  LLC: 2048
rand_sets[51]: 920
Assign rand_sets[52]: 204  LLC: 2048
rand_sets[52]: 204
Assign rand_sets[53]: 227  LLC: 2048
rand_sets[53]: 227
Assign rand_sets[54]: 1818  LLC: 2048
rand_sets[54]: 1818
Assign rand_sets[55]: 886  LLC: 2048
rand_sets[55]: 886
Assign rand_sets[56]: 1422  LLC: 2048
rand_sets[56]: 1422
Assign rand_sets[57]: 607  LLC: 2048
rand_sets[57]: 607
Assign rand_sets[58]: 217  LLC: 2048
rand_sets[58]: 217
Assign rand_sets[59]: 1945  LLC: 2048
rand_sets[59]: 1945
Assign rand_sets[60]: 143  LLC: 2048
rand_sets[60]: 143
Assign rand_sets[61]: 1311  LLC: 2048
rand_sets[61]: 1311
Assign rand_sets[62]: 319  LLC: 2048
rand_sets[62]: 319
Assign rand_sets[63]: 1846  LLC: 2048
rand_sets[63]: 1846
warmup_instructions 100000000
simulation_instructions 100000000
champsim_seed 271

num_cpus 1
cpu_freq 4000
dram_io_freq 2400
page_size 4096
block_size 64
max_read_per_cycle 8
max_fill_per_cycle 1
dram_channels 1
dram_ranks 1
dram_banks 8
dram_rows 65536
dram_columns 128
dram_row_size 8
dram_size 4096
dram_pages 1048576

fetch_width 6
decode_width 6
exec_width 4
lq_width 2
sq_width 2
retire_width 4
scheduler_size 128
branch_mispredict_penalty 20
rob_size 256
lq_size 72
sq_size 56
num_instr_destinations_sparc 4
num_instr_destinations 2
num_instr_sources 4

itlb_set 16
itlb_way 8
itlb_rq_size 16
itlb_wq_size 16
itlb_pq_size 0
itlb_mshr_size 8
itlb_latency 1

dtlb_set 16
dtlb_way 4
dtlb_rq_size 16
dtlb_wq_size 16
dtlb_pq_size 0
dtlb_mshr_size 8
dtlb_latency 1

stlb_set 128
stlb_way 12
stlb_rq_size 32
stlb_wq_size 32
stlb_pq_size 0
stlb_mshr_size 16
stlb_latency 8

l1i_size 32
l1i_set 64
l1i_way 8
l1i_rq_size 64
l1i_wq_size 64
l1i_pq_size 8
l1i_mshr_size 8
l1i_latency 1

l1d_size 32
l1d_set 64
l1d_way 8
l1d_rq_size 64
l1d_wq_size 64
l1d_pq_size 8
l1d_mshr_size 16
l1d_latency 4

l2c_size 512
l2c_set 1024
l2c_way 8
l2c_rq_size 32
l2c_wq_size 32
l2c_pq_size 16
l2c_mshr_size 32
l2c_latency 10

llc_size 2048
llc_set 2048
llc_way 16
llc_rq_size 32
llc_wq_size 32
llc_pq_size 32
llc_mshr_size 64
llc_latency 20

dram_channel_width 8
dram_wq_size 64
dram_rq_size 64
tRP 15
tRCD 15
tCAS 12.5
dram_dbus_turn_around_time 30
dram_write_high_wm 56
dram_write_low_wm 48
min_dram_writes_per_switch 16
dram_mtps 2400
dram_dbus_return_time 13


Heartbeat CPU  0 instructions:    1000003 cycles:     702358 heartbeat IPC: 1.42378 cumulative IPC: 1.42378 (Simulation time: 0 hr 0 min 3 sec) 
Heartbeat CPU  0 instructions:    2000000 cycles:    1404572 heartbeat IPC: 1.42406 cumulative IPC: 1.42392 (Simulation time: 0 hr 0 min 5 sec) 
Heartbeat CPU  0 instructions:    3000000 cycles:    2106946 heartbeat IPC: 1.42374 cumulative IPC: 1.42386 (Simulation time: 0 hr 0 min 8 sec) 
Heartbeat CPU  0 instructions:    4000000 cycles:    2809279 heartbeat IPC: 1.42383 cumulative IPC: 1.42385 (Simulation time: 0 hr 0 min 10 sec) 
Heartbeat CPU  0 instructions:    5000000 cycles:    3511467 heartbeat IPC: 1.42412 cumulative IPC: 1.42391 (Simulation time: 0 hr 0 min 13 sec) 
Heartbeat CPU  0 instructions:    6000000 cycles:    4213839 heartbeat IPC: 1.42375 cumulative IPC: 1.42388 (Simulation time: 0 hr 0 min 15 sec) 
Heartbeat CPU  0 instructions:    7000001 cycles:    4916238 heartbeat IPC: 1.42369 cumulative IPC: 1.42385 (Simulation time: 0 hr 0 min 18 sec) 
Heartbeat CPU  0 instructions:    8000000 cycles:    5618388 heartbeat IPC: 1.42420 cumulative IPC: 1.42390 (Simulation time: 0 hr 0 min 20 sec) 
Heartbeat CPU  0 instructions:    9000001 cycles:    6320823 heartbeat IPC: 1.42362 cumulative IPC: 1.42387 (Simulation time: 0 hr 0 min 23 sec) 
Heartbeat CPU  0 instructions:   10000000 cycles:    7023046 heartbeat IPC: 1.42405 cumulative IPC: 1.42388 (Simulation time: 0 hr 0 min 25 sec) 
Heartbeat CPU  0 instructions:   11000002 cycles:    7725291 heartbeat IPC: 1.42401 cumulative IPC: 1.42389 (Simulation time: 0 hr 0 min 28 sec) 
Heartbeat CPU  0 instructions:   12000000 cycles:    8427446 heartbeat IPC: 1.42418 cumulative IPC: 1.42392 (Simulation time: 0 hr 0 min 30 sec) 
Heartbeat CPU  0 instructions:   13000000 cycles:    9129995 heartbeat IPC: 1.42339 cumulative IPC: 1.42388 (Simulation time: 0 hr 0 min 33 sec) 
Heartbeat CPU  0 instructions:   14000002 cycles:    9832234 heartbeat IPC: 1.42402 cumulative IPC: 1.42389 (Simulation time: 0 hr 0 min 35 sec) 
Heartbeat CPU  0 instructions:   15000002 cycles:   10534154 heartbeat IPC: 1.42466 cumulative IPC: 1.42394 (Simulation time: 0 hr 0 min 38 sec) 
Heartbeat CPU  0 instructions:   16000000 cycles:   11236702 heartbeat IPC: 1.42339 cumulative IPC: 1.42391 (Simulation time: 0 hr 0 min 40 sec) 
Heartbeat CPU  0 instructions:   17000000 cycles:   11939222 heartbeat IPC: 1.42345 cumulative IPC: 1.42388 (Simulation time: 0 hr 0 min 42 sec) 
Heartbeat CPU  0 instructions:   18000001 cycles:   12602183 heartbeat IPC: 1.50839 cumulative IPC: 1.42832 (Simulation time: 0 hr 0 min 45 sec) 
Heartbeat CPU  0 instructions:   19000000 cycles:   13240528 heartbeat IPC: 1.56655 cumulative IPC: 1.43499 (Simulation time: 0 hr 0 min 47 sec) 
Heartbeat CPU  0 instructions:   20000000 cycles:   13943021 heartbeat IPC: 1.42350 cumulative IPC: 1.43441 (Simulation time: 0 hr 0 min 50 sec) 
Heartbeat CPU  0 instructions:   21000000 cycles:   14645384 heartbeat IPC: 1.42377 cumulative IPC: 1.43390 (Simulation time: 0 hr 0 min 52 sec) 
Heartbeat CPU  0 instructions:   22000002 cycles:   15347674 heartbeat IPC: 1.42392 cumulative IPC: 1.43344 (Simulation time: 0 hr 0 min 55 sec) 
Heartbeat CPU  0 instructions:   23000001 cycles:   16050049 heartbeat IPC: 1.42374 cumulative IPC: 1.43302 (Simulation time: 0 hr 0 min 58 sec) 
Heartbeat CPU  0 instructions:   24000000 cycles:   16752157 heartbeat IPC: 1.42428 cumulative IPC: 1.43265 (Simulation time: 0 hr 1 min 0 sec) 
Heartbeat CPU  0 instructions:   25000001 cycles:   17454458 heartbeat IPC: 1.42389 cumulative IPC: 1.43230 (Simulation time: 0 hr 1 min 3 sec) 
Heartbeat CPU  0 instructions:   26000003 cycles:   18157139 heartbeat IPC: 1.42312 cumulative IPC: 1.43194 (Simulation time: 0 hr 1 min 5 sec) 
Heartbeat CPU  0 instructions:   27000003 cycles:   18859309 heartbeat IPC: 1.42416 cumulative IPC: 1.43165 (Simulation time: 0 hr 1 min 8 sec) 
Heartbeat CPU  0 instructions:   28000000 cycles:   19561419 heartbeat IPC: 1.42427 cumulative IPC: 1.43139 (Simulation time: 0 hr 1 min 10 sec) 
Heartbeat CPU  0 instructions:   29000000 cycles:   20263829 heartbeat IPC: 1.42367 cumulative IPC: 1.43112 (Simulation time: 0 hr 1 min 13 sec) 
Heartbeat CPU  0 instructions:   30000003 cycles:   20966239 heartbeat IPC: 1.42367 cumulative IPC: 1.43087 (Simulation time: 0 hr 1 min 15 sec) 
Heartbeat CPU  0 instructions:   31000003 cycles:   21668090 heartbeat IPC: 1.42480 cumulative IPC: 1.43068 (Simulation time: 0 hr 1 min 18 sec) 
Heartbeat CPU  0 instructions:   32000000 cycles:   22370213 heartbeat IPC: 1.42425 cumulative IPC: 1.43047 (Simulation time: 0 hr 1 min 20 sec) 
Heartbeat CPU  0 instructions:   33000001 cycles:   23072963 heartbeat IPC: 1.42298 cumulative IPC: 1.43025 (Simulation time: 0 hr 1 min 23 sec) 
Heartbeat CPU  0 instructions:   34000000 cycles:   23775134 heartbeat IPC: 1.42415 cumulative IPC: 1.43007 (Simulation time: 0 hr 1 min 25 sec) 
Heartbeat CPU  0 instructions:   35000001 cycles:   24477375 heartbeat IPC: 1.42401 cumulative IPC: 1.42989 (Simulation time: 0 hr 1 min 28 sec) 
Heartbeat CPU  0 instructions:   36000000 cycles:   25179567 heartbeat IPC: 1.42411 cumulative IPC: 1.42973 (Simulation time: 0 hr 1 min 30 sec) 
Heartbeat CPU  0 instructions:   37000000 cycles:   25882099 heartbeat IPC: 1.42342 cumulative IPC: 1.42956 (Simulation time: 0 hr 1 min 33 sec) 
Heartbeat CPU  0 instructions:   38000001 cycles:   26584339 heartbeat IPC: 1.42402 cumulative IPC: 1.42941 (Simulation time: 0 hr 1 min 35 sec) 
Heartbeat CPU  0 instructions:   39000000 cycles:   27286602 heartbeat IPC: 1.42397 cumulative IPC: 1.42927 (Simulation time: 0 hr 1 min 38 sec) 
Heartbeat CPU  0 instructions:   40000000 cycles:   27988789 heartbeat IPC: 1.42412 cumulative IPC: 1.42914 (Simulation time: 0 hr 1 min 40 sec) 
Heartbeat CPU  0 instructions:   41000000 cycles:   28598689 heartbeat IPC: 1.63961 cumulative IPC: 1.43363 (Simulation time: 0 hr 1 min 43 sec) 
Heartbeat CPU  0 instructions:   42000002 cycles:   29290574 heartbeat IPC: 1.44533 cumulative IPC: 1.43391 (Simulation time: 0 hr 1 min 45 sec) 
Heartbeat CPU  0 instructions:   43000002 cycles:   29992992 heartbeat IPC: 1.42365 cumulative IPC: 1.43367 (Simulation time: 0 hr 1 min 48 sec) 
Heartbeat CPU  0 instructions:   44000000 cycles:   30695462 heartbeat IPC: 1.42355 cumulative IPC: 1.43344 (Simulation time: 0 hr 1 min 51 sec) 
Heartbeat CPU  0 instructions:   45000003 cycles:   31397714 heartbeat IPC: 1.42399 cumulative IPC: 1.43323 (Simulation time: 0 hr 1 min 53 sec) 
Heartbeat CPU  0 instructions:   46000003 cycles:   32099909 heartbeat IPC: 1.42411 cumulative IPC: 1.43303 (Simulation time: 0 hr 1 min 56 sec) 
Heartbeat CPU  0 instructions:   47000000 cycles:   32802110 heartbeat IPC: 1.42409 cumulative IPC: 1.43283 (Simulation time: 0 hr 1 min 58 sec) 
Heartbeat CPU  0 instructions:   48000000 cycles:   33504751 heartbeat IPC: 1.42320 cumulative IPC: 1.43263 (Simulation time: 0 hr 2 min 1 sec) 
Heartbeat CPU  0 instructions:   49000000 cycles:   34206717 heartbeat IPC: 1.42457 cumulative IPC: 1.43247 (Simulation time: 0 hr 2 min 3 sec) 
Heartbeat CPU  0 instructions:   50000000 cycles:   34909053 heartbeat IPC: 1.42382 cumulative IPC: 1.43229 (Simulation time: 0 hr 2 min 6 sec) 
Heartbeat CPU  0 instructions:   51000000 cycles:   35611591 heartbeat IPC: 1.42341 cumulative IPC: 1.43212 (Simulation time: 0 hr 2 min 8 sec) 
Heartbeat CPU  0 instructions:   52000000 cycles:   36313764 heartbeat IPC: 1.42415 cumulative IPC: 1.43196 (Simulation time: 0 hr 2 min 11 sec) 
Heartbeat CPU  0 instructions:   53000000 cycles:   37016104 heartbeat IPC: 1.42381 cumulative IPC: 1.43181 (Simulation time: 0 hr 2 min 14 sec) 
Heartbeat CPU  0 instructions:   54000001 cycles:   37718230 heartbeat IPC: 1.42425 cumulative IPC: 1.43167 (Simulation time: 0 hr 2 min 16 sec) 
Heartbeat CPU  0 instructions:   55000001 cycles:   38420501 heartbeat IPC: 1.42395 cumulative IPC: 1.43153 (Simulation time: 0 hr 2 min 19 sec) 
Heartbeat CPU  0 instructions:   56000000 cycles:   39122984 heartbeat IPC: 1.42352 cumulative IPC: 1.43138 (Simulation time: 0 hr 2 min 21 sec) 
Heartbeat CPU  0 instructions:   57000000 cycles:   39825416 heartbeat IPC: 1.42363 cumulative IPC: 1.43125 (Simulation time: 0 hr 2 min 24 sec) 
Heartbeat CPU  0 instructions:   58000002 cycles:   40527649 heartbeat IPC: 1.42403 cumulative IPC: 1.43112 (Simulation time: 0 hr 2 min 26 sec) 
Heartbeat CPU  0 instructions:   59000000 cycles:   41229835 heartbeat IPC: 1.42412 cumulative IPC: 1.43100 (Simulation time: 0 hr 2 min 29 sec) 
Heartbeat CPU  0 instructions:   60000000 cycles:   41932318 heartbeat IPC: 1.42352 cumulative IPC: 1.43088 (Simulation time: 0 hr 2 min 31 sec) 
Heartbeat CPU  0 instructions:   61000000 cycles:   42634493 heartbeat IPC: 1.42415 cumulative IPC: 1.43077 (Simulation time: 0 hr 2 min 34 sec) 
Heartbeat CPU  0 instructions:   62000002 cycles:   43336673 heartbeat IPC: 1.42414 cumulative IPC: 1.43066 (Simulation time: 0 hr 2 min 36 sec) 
Heartbeat CPU  0 instructions:   63000000 cycles:   43986651 heartbeat IPC: 1.53851 cumulative IPC: 1.43225 (Simulation time: 0 hr 2 min 39 sec) 
Heartbeat CPU  0 instructions:   64000000 cycles:   44640210 heartbeat IPC: 1.53008 cumulative IPC: 1.43369 (Simulation time: 0 hr 2 min 41 sec) 
Heartbeat CPU  0 instructions:   65000000 cycles:   45342290 heartbeat IPC: 1.42434 cumulative IPC: 1.43354 (Simulation time: 0 hr 2 min 44 sec) 
Heartbeat CPU  0 instructions:   66000001 cycles:   46044404 heartbeat IPC: 1.42427 cumulative IPC: 1.43340 (Simulation time: 0 hr 2 min 47 sec) 
Heartbeat CPU  0 instructions:   67000002 cycles:   46746481 heartbeat IPC: 1.42435 cumulative IPC: 1.43326 (Simulation time: 0 hr 2 min 49 sec) 
Heartbeat CPU  0 instructions:   68000000 cycles:   47448894 heartbeat IPC: 1.42366 cumulative IPC: 1.43312 (Simulation time: 0 hr 2 min 52 sec) 
Heartbeat CPU  0 instructions:   69000000 cycles:   48151101 heartbeat IPC: 1.42408 cumulative IPC: 1.43299 (Simulation time: 0 hr 2 min 55 sec) 
Heartbeat CPU  0 instructions:   70000002 cycles:   48853212 heartbeat IPC: 1.42428 cumulative IPC: 1.43286 (Simulation time: 0 hr 2 min 57 sec) 
Heartbeat CPU  0 instructions:   71000003 cycles:   49555850 heartbeat IPC: 1.42321 cumulative IPC: 1.43273 (Simulation time: 0 hr 3 min 0 sec) 
Heartbeat CPU  0 instructions:   72000000 cycles:   50257936 heartbeat IPC: 1.42432 cumulative IPC: 1.43261 (Simulation time: 0 hr 3 min 3 sec) 
Heartbeat CPU  0 instructions:   73000001 cycles:   50960050 heartbeat IPC: 1.42427 cumulative IPC: 1.43249 (Simulation time: 0 hr 3 min 5 sec) 
Heartbeat CPU  0 instructions:   74000003 cycles:   51662407 heartbeat IPC: 1.42378 cumulative IPC: 1.43238 (Simulation time: 0 hr 3 min 8 sec) 
Heartbeat CPU  0 instructions:   75000002 cycles:   52365070 heartbeat IPC: 1.42316 cumulative IPC: 1.43225 (Simulation time: 0 hr 3 min 11 sec) 
Heartbeat CPU  0 instructions:   76000000 cycles:   53067232 heartbeat IPC: 1.42417 cumulative IPC: 1.43215 (Simulation time: 0 hr 3 min 13 sec) 
Heartbeat CPU  0 instructions:   77000003 cycles:   53769892 heartbeat IPC: 1.42317 cumulative IPC: 1.43203 (Simulation time: 0 hr 3 min 15 sec) 
Heartbeat CPU  0 instructions:   78000001 cycles:   54472433 heartbeat IPC: 1.42340 cumulative IPC: 1.43192 (Simulation time: 0 hr 3 min 18 sec) 
Heartbeat CPU  0 instructions:   79000001 cycles:   55174329 heartbeat IPC: 1.42471 cumulative IPC: 1.43183 (Simulation time: 0 hr 3 min 21 sec) 
Heartbeat CPU  0 instructions:   80000000 cycles:   55876331 heartbeat IPC: 1.42450 cumulative IPC: 1.43173 (Simulation time: 0 hr 3 min 23 sec) 
Heartbeat CPU  0 instructions:   81000002 cycles:   56578749 heartbeat IPC: 1.42366 cumulative IPC: 1.43163 (Simulation time: 0 hr 3 min 26 sec) 
Heartbeat CPU  0 instructions:   82000000 cycles:   57281025 heartbeat IPC: 1.42394 cumulative IPC: 1.43154 (Simulation time: 0 hr 3 min 29 sec) 
Heartbeat CPU  0 instructions:   83000001 cycles:   57983278 heartbeat IPC: 1.42399 cumulative IPC: 1.43145 (Simulation time: 0 hr 3 min 31 sec) 
Heartbeat CPU  0 instructions:   84000000 cycles:   58685498 heartbeat IPC: 1.42405 cumulative IPC: 1.43136 (Simulation time: 0 hr 3 min 34 sec) 
Heartbeat CPU  0 instructions:   85000000 cycles:   59374733 heartbeat IPC: 1.45088 cumulative IPC: 1.43159 (Simulation time: 0 hr 3 min 36 sec) 
Heartbeat CPU  0 instructions:   86000002 cycles:   59988439 heartbeat IPC: 1.62945 cumulative IPC: 1.43361 (Simulation time: 0 hr 3 min 39 sec) 
Heartbeat CPU  0 instructions:   87000002 cycles:   60690923 heartbeat IPC: 1.42352 cumulative IPC: 1.43349 (Simulation time: 0 hr 3 min 41 sec) 
Heartbeat CPU  0 instructions:   88000000 cycles:   61393560 heartbeat IPC: 1.42321 cumulative IPC: 1.43338 (Simulation time: 0 hr 3 min 43 sec) 
Heartbeat CPU  0 instructions:   89000001 cycles:   62095657 heartbeat IPC: 1.42431 cumulative IPC: 1.43327 (Simulation time: 0 hr 3 min 46 sec) 
Heartbeat CPU  0 instructions:   90000003 cycles:   62798073 heartbeat IPC: 1.42366 cumulative IPC: 1.43317 (Simulation time: 0 hr 3 min 49 sec) 
Heartbeat CPU  0 instructions:   91000003 cycles:   63500504 heartbeat IPC: 1.42363 cumulative IPC: 1.43306 (Simulation time: 0 hr 3 min 52 sec) 
Heartbeat CPU  0 instructions:   92000000 cycles:   64202798 heartbeat IPC: 1.42390 cumulative IPC: 1.43296 (Simulation time: 0 hr 3 min 54 sec) 
Heartbeat CPU  0 instructions:   93000002 cycles:   64905128 heartbeat IPC: 1.42383 cumulative IPC: 1.43286 (Simulation time: 0 hr 3 min 57 sec) 
Heartbeat CPU  0 instructions:   94000002 cycles:   65607215 heartbeat IPC: 1.42432 cumulative IPC: 1.43277 (Simulation time: 0 hr 4 min 0 sec) 
Heartbeat CPU  0 instructions:   95000003 cycles:   66309493 heartbeat IPC: 1.42394 cumulative IPC: 1.43268 (Simulation time: 0 hr 4 min 2 sec) 
Heartbeat CPU  0 instructions:   96000000 cycles:   67011890 heartbeat IPC: 1.42369 cumulative IPC: 1.43258 (Simulation time: 0 hr 4 min 5 sec) 
Heartbeat CPU  0 instructions:   97000000 cycles:   67714358 heartbeat IPC: 1.42355 cumulative IPC: 1.43249 (Simulation time: 0 hr 4 min 8 sec) 
Heartbeat CPU  0 instructions:   98000002 cycles:   68416611 heartbeat IPC: 1.42399 cumulative IPC: 1.43240 (Simulation time: 0 hr 4 min 10 sec) 
Heartbeat CPU  0 instructions:   99000003 cycles:   69118951 heartbeat IPC: 1.42381 cumulative IPC: 1.43231 (Simulation time: 0 hr 4 min 13 sec) 
Heartbeat CPU  0 instructions:  100000000 cycles:   69821372 heartbeat IPC: 1.42364 cumulative IPC: 1.43223 (Simulation time: 0 hr 4 min 16 sec) 

Warmup complete CPU  0 instructions:  100000001 cycles:   69821392 (Simulation time: 0 hr 4 min 16 sec) 

Heartbeat CPU  0 instructions:  101000000 cycles:   71930850 heartbeat IPC: 0.47405 cumulative IPC: 0.47405 (Simulation time: 0 hr 4 min 19 sec) 
Heartbeat CPU  0 instructions:  102000003 cycles:   73862771 heartbeat IPC: 0.51762 cumulative IPC: 0.49488 (Simulation time: 0 hr 4 min 22 sec) 
Heartbeat CPU  0 instructions:  103000003 cycles:   75919883 heartbeat IPC: 0.48612 cumulative IPC: 0.49193 (Simulation time: 0 hr 4 min 25 sec) 
Heartbeat CPU  0 instructions:  104000000 cycles:   78036141 heartbeat IPC: 0.47253 cumulative IPC: 0.48693 (Simulation time: 0 hr 4 min 28 sec) 
Heartbeat CPU  0 instructions:  105000002 cycles:   80076636 heartbeat IPC: 0.49008 cumulative IPC: 0.48756 (Simulation time: 0 hr 4 min 31 sec) 
Heartbeat CPU  0 instructions:  106000000 cycles:   82086536 heartbeat IPC: 0.49754 cumulative IPC: 0.48919 (Simulation time: 0 hr 4 min 34 sec) 
Heartbeat CPU  0 instructions:  107000003 cycles:   84188175 heartbeat IPC: 0.47582 cumulative IPC: 0.48724 (Simulation time: 0 hr 4 min 38 sec) 
Heartbeat CPU  0 instructions:  108000000 cycles:   95820292 heartbeat IPC: 0.08597 cumulative IPC: 0.30771 (Simulation time: 0 hr 4 min 42 sec) 
Heartbeat CPU  0 instructions:  109000003 cycles:  103236116 heartbeat IPC: 0.13485 cumulative IPC: 0.26934 (Simulation time: 0 hr 4 min 45 sec) 
Heartbeat CPU  0 instructions:  110000001 cycles:  105400111 heartbeat IPC: 0.46211 cumulative IPC: 0.28107 (Simulation time: 0 hr 4 min 49 sec) 
Heartbeat CPU  0 instructions:  111000000 cycles:  107573060 heartbeat IPC: 0.46020 cumulative IPC: 0.29138 (Simulation time: 0 hr 4 min 52 sec) 
Heartbeat CPU  0 instructions:  112000000 cycles:  109633305 heartbeat IPC: 0.48538 cumulative IPC: 0.30142 (Simulation time: 0 hr 4 min 55 sec) 
Heartbeat CPU  0 instructions:  113000000 cycles:  111749729 heartbeat IPC: 0.47250 cumulative IPC: 0.31005 (Simulation time: 0 hr 4 min 58 sec) 
Heartbeat CPU  0 instructions:  114000000 cycles:  113938283 heartbeat IPC: 0.45692 cumulative IPC: 0.31734 (Simulation time: 0 hr 5 min 1 sec) 
Heartbeat CPU  0 instructions:  115000001 cycles:  115996041 heartbeat IPC: 0.48597 cumulative IPC: 0.32485 (Simulation time: 0 hr 5 min 4 sec) 
Heartbeat CPU  0 instructions:  116000000 cycles:  117981079 heartbeat IPC: 0.50377 cumulative IPC: 0.33223 (Simulation time: 0 hr 5 min 7 sec) 
Heartbeat CPU  0 instructions:  117000003 cycles:  120093908 heartbeat IPC: 0.47330 cumulative IPC: 0.33816 (Simulation time: 0 hr 5 min 10 sec) 
Heartbeat CPU  0 instructions:  118000002 cycles:  122195522 heartbeat IPC: 0.47582 cumulative IPC: 0.34368 (Simulation time: 0 hr 5 min 13 sec) 
Heartbeat CPU  0 instructions:  119000002 cycles:  124132960 heartbeat IPC: 0.51615 cumulative IPC: 0.34983 (Simulation time: 0 hr 5 min 16 sec) 
Heartbeat CPU  0 instructions:  120000000 cycles:  126233466 heartbeat IPC: 0.47607 cumulative IPC: 0.35453 (Simulation time: 0 hr 5 min 19 sec) 
Heartbeat CPU  0 instructions:  121000003 cycles:  128353614 heartbeat IPC: 0.47167 cumulative IPC: 0.35878 (Simulation time: 0 hr 5 min 22 sec) 
Heartbeat CPU  0 instructions:  122000000 cycles:  130307145 heartbeat IPC: 0.51189 cumulative IPC: 0.36372 (Simulation time: 0 hr 5 min 25 sec) 
Heartbeat CPU  0 instructions:  123000002 cycles:  132323780 heartbeat IPC: 0.49588 cumulative IPC: 0.36799 (Simulation time: 0 hr 5 min 27 sec) 
Heartbeat CPU  0 instructions:  124000000 cycles:  134410973 heartbeat IPC: 0.47911 cumulative IPC: 0.37158 (Simulation time: 0 hr 5 min 30 sec) 
Heartbeat CPU  0 instructions:  125000000 cycles:  136428779 heartbeat IPC: 0.49559 cumulative IPC: 0.37533 (Simulation time: 0 hr 5 min 33 sec) 
Heartbeat CPU  0 instructions:  126000002 cycles:  138382175 heartbeat IPC: 0.51193 cumulative IPC: 0.37923 (Simulation time: 0 hr 5 min 36 sec) 
Heartbeat CPU  0 instructions:  127000002 cycles:  140588621 heartbeat IPC: 0.45322 cumulative IPC: 0.38153 (Simulation time: 0 hr 5 min 39 sec) 
Heartbeat CPU  0 instructions:  128000000 cycles:  142675696 heartbeat IPC: 0.47914 cumulative IPC: 0.38433 (Simulation time: 0 hr 5 min 42 sec) 
Heartbeat CPU  0 instructions:  129000001 cycles:  144591808 heartbeat IPC: 0.52189 cumulative IPC: 0.38785 (Simulation time: 0 hr 5 min 45 sec) 
Heartbeat CPU  0 instructions:  130000000 cycles:  150553246 heartbeat IPC: 0.16774 cumulative IPC: 0.37160 (Simulation time: 0 hr 5 min 48 sec) 
Heartbeat CPU  0 instructions:  131000003 cycles:  163622022 heartbeat IPC: 0.07652 cumulative IPC: 0.33049 (Simulation time: 0 hr 5 min 52 sec) 
Heartbeat CPU  0 instructions:  132000000 cycles:  165653064 heartbeat IPC: 0.49236 cumulative IPC: 0.33392 (Simulation time: 0 hr 5 min 55 sec) 
Heartbeat CPU  0 instructions:  133000000 cycles:  167733197 heartbeat IPC: 0.48074 cumulative IPC: 0.33704 (Simulation time: 0 hr 5 min 58 sec) 
Heartbeat CPU  0 instructions:  134000000 cycles:  169890090 heartbeat IPC: 0.46363 cumulative IPC: 0.33977 (Simulation time: 0 hr 6 min 1 sec) 
Heartbeat CPU  0 instructions:  135000000 cycles:  171994059 heartbeat IPC: 0.47529 cumulative IPC: 0.34256 (Simulation time: 0 hr 6 min 4 sec) 
Heartbeat CPU  0 instructions:  136000000 cycles:  173984959 heartbeat IPC: 0.50229 cumulative IPC: 0.34561 (Simulation time: 0 hr 6 min 7 sec) 
Heartbeat CPU  0 instructions:  137000002 cycles:  176104748 heartbeat IPC: 0.47175 cumulative IPC: 0.34813 (Simulation time: 0 hr 6 min 10 sec) 
Heartbeat CPU  0 instructions:  138000000 cycles:  178197706 heartbeat IPC: 0.47779 cumulative IPC: 0.35063 (Simulation time: 0 hr 6 min 13 sec) 
Heartbeat CPU  0 instructions:  139000001 cycles:  180109744 heartbeat IPC: 0.52300 cumulative IPC: 0.35362 (Simulation time: 0 hr 6 min 16 sec) 
Heartbeat CPU  0 instructions:  140000000 cycles:  182197016 heartbeat IPC: 0.47909 cumulative IPC: 0.35595 (Simulation time: 0 hr 6 min 19 sec) 
Heartbeat CPU  0 instructions:  141000000 cycles:  184295791 heartbeat IPC: 0.47647 cumulative IPC: 0.35816 (Simulation time: 0 hr 6 min 21 sec) 
Heartbeat CPU  0 instructions:  142000001 cycles:  186284086 heartbeat IPC: 0.50294 cumulative IPC: 0.36063 (Simulation time: 0 hr 6 min 24 sec) 
Heartbeat CPU  0 instructions:  143000001 cycles:  188314154 heartbeat IPC: 0.49259 cumulative IPC: 0.36289 (Simulation time: 0 hr 6 min 27 sec) 
Heartbeat CPU  0 instructions:  144000000 cycles:  190437005 heartbeat IPC: 0.47106 cumulative IPC: 0.36480 (Simulation time: 0 hr 6 min 30 sec) 
Heartbeat CPU  0 instructions:  145000000 cycles:  192498554 heartbeat IPC: 0.48507 cumulative IPC: 0.36682 (Simulation time: 0 hr 6 min 33 sec) 
Heartbeat CPU  0 instructions:  146000002 cycles:  194433565 heartbeat IPC: 0.51679 cumulative IPC: 0.36915 (Simulation time: 0 hr 6 min 36 sec) 
Heartbeat CPU  0 instructions:  147000003 cycles:  196513541 heartbeat IPC: 0.48078 cumulative IPC: 0.37098 (Simulation time: 0 hr 6 min 38 sec) 
Heartbeat CPU  0 instructions:  148000000 cycles:  198592195 heartbeat IPC: 0.48108 cumulative IPC: 0.37276 (Simulation time: 0 hr 6 min 41 sec) 
Heartbeat CPU  0 instructions:  149000002 cycles:  200520371 heartbeat IPC: 0.51863 cumulative IPC: 0.37491 (Simulation time: 0 hr 6 min 44 sec) 
Heartbeat CPU  0 instructions:  150000003 cycles:  202591675 heartbeat IPC: 0.48279 cumulative IPC: 0.37659 (Simulation time: 0 hr 6 min 47 sec) 
Heartbeat CPU  0 instructions:  151000003 cycles:  204688654 heartbeat IPC: 0.47688 cumulative IPC: 0.37815 (Simulation time: 0 hr 6 min 49 sec) 
Heartbeat CPU  0 instructions:  152000000 cycles:  206698070 heartbeat IPC: 0.49766 cumulative IPC: 0.37990 (Simulation time: 0 hr 6 min 52 sec) 
Heartbeat CPU  0 instructions:  153000003 cycles:  220484822 heartbeat IPC: 0.07253 cumulative IPC: 0.35178 (Simulation time: 0 hr 6 min 56 sec) 
Heartbeat CPU  0 instructions:  154000000 cycles:  225925744 heartbeat IPC: 0.18379 cumulative IPC: 0.34592 (Simulation time: 0 hr 6 min 59 sec) 
Heartbeat CPU  0 instructions:  155000000 cycles:  228050729 heartbeat IPC: 0.47059 cumulative IPC: 0.34760 (Simulation time: 0 hr 7 min 2 sec) 
Heartbeat CPU  0 instructions:  156000000 cycles:  230059012 heartbeat IPC: 0.49794 cumulative IPC: 0.34948 (Simulation time: 0 hr 7 min 5 sec) 
Heartbeat CPU  0 instructions:  157000001 cycles:  232229347 heartbeat IPC: 0.46076 cumulative IPC: 0.35097 (Simulation time: 0 hr 7 min 8 sec) 
Heartbeat CPU  0 instructions:  158000001 cycles:  234374558 heartbeat IPC: 0.46615 cumulative IPC: 0.35247 (Simulation time: 0 hr 7 min 10 sec) 
Heartbeat CPU  0 instructions:  159000000 cycles:  236361571 heartbeat IPC: 0.50327 cumulative IPC: 0.35427 (Simulation time: 0 hr 7 min 13 sec) 
Heartbeat CPU  0 instructions:  160000000 cycles:  238471239 heartbeat IPC: 0.47401 cumulative IPC: 0.35577 (Simulation time: 0 hr 7 min 16 sec) 
Heartbeat CPU  0 instructions:  161000003 cycles:  240573843 heartbeat IPC: 0.47560 cumulative IPC: 0.35724 (Simulation time: 0 hr 7 min 19 sec) 
Heartbeat CPU  0 instructions:  162000000 cycles:  242575582 heartbeat IPC: 0.49956 cumulative IPC: 0.35889 (Simulation time: 0 hr 7 min 21 sec) 
Heartbeat CPU  0 instructions:  163000003 cycles:  244591419 heartbeat IPC: 0.49607 cumulative IPC: 0.36047 (Simulation time: 0 hr 7 min 24 sec) 
Heartbeat CPU  0 instructions:  164000000 cycles:  246690137 heartbeat IPC: 0.47648 cumulative IPC: 0.36185 (Simulation time: 0 hr 7 min 27 sec) 
Heartbeat CPU  0 instructions:  165000000 cycles:  248793491 heartbeat IPC: 0.47543 cumulative IPC: 0.36319 (Simulation time: 0 hr 7 min 30 sec) 
Heartbeat CPU  0 instructions:  166000001 cycles:  250739250 heartbeat IPC: 0.51394 cumulative IPC: 0.36481 (Simulation time: 0 hr 7 min 33 sec) 
Heartbeat CPU  0 instructions:  167000000 cycles:  252860896 heartbeat IPC: 0.47133 cumulative IPC: 0.36604 (Simulation time: 0 hr 7 min 35 sec) 
Heartbeat CPU  0 instructions:  168000000 cycles:  254945721 heartbeat IPC: 0.47966 cumulative IPC: 0.36732 (Simulation time: 0 hr 7 min 38 sec) 
Heartbeat CPU  0 instructions:  169000001 cycles:  256886699 heartbeat IPC: 0.51520 cumulative IPC: 0.36886 (Simulation time: 0 hr 7 min 41 sec) 
Heartbeat CPU  0 instructions:  170000002 cycles:  258932697 heartbeat IPC: 0.48876 cumulative IPC: 0.37015 (Simulation time: 0 hr 7 min 43 sec) 
Heartbeat CPU  0 instructions:  171000001 cycles:  261029775 heartbeat IPC: 0.47685 cumulative IPC: 0.37132 (Simulation time: 0 hr 7 min 46 sec) 
Heartbeat CPU  0 instructions:  172000000 cycles:  263049181 heartbeat IPC: 0.49519 cumulative IPC: 0.37262 (Simulation time: 0 hr 7 min 49 sec) 
Heartbeat CPU  0 instructions:  173000000 cycles:  265009676 heartbeat IPC: 0.51008 cumulative IPC: 0.37400 (Simulation time: 0 hr 7 min 52 sec) 
Heartbeat CPU  0 instructions:  174000003 cycles:  267122586 heartbeat IPC: 0.47328 cumulative IPC: 0.37506 (Simulation time: 0 hr 7 min 55 sec) 
Heartbeat CPU  0 instructions:  175000000 cycles:  274907557 heartbeat IPC: 0.12845 cumulative IPC: 0.36570 (Simulation time: 0 hr 7 min 58 sec) 
Heartbeat CPU  0 instructions:  176000000 cycles:  286074831 heartbeat IPC: 0.08955 cumulative IPC: 0.35144 (Simulation time: 0 hr 8 min 2 sec) 
Heartbeat CPU  0 instructions:  177000001 cycles:  288326780 heartbeat IPC: 0.44406 cumulative IPC: 0.35239 (Simulation time: 0 hr 8 min 5 sec) 
Heartbeat CPU  0 instructions:  178000003 cycles:  290643795 heartbeat IPC: 0.43159 cumulative IPC: 0.35323 (Simulation time: 0 hr 8 min 8 sec) 
Heartbeat CPU  0 instructions:  179000002 cycles:  292843393 heartbeat IPC: 0.45463 cumulative IPC: 0.35423 (Simulation time: 0 hr 8 min 11 sec) 
Heartbeat CPU  0 instructions:  180000000 cycles:  294999400 heartbeat IPC: 0.46382 cumulative IPC: 0.35527 (Simulation time: 0 hr 8 min 14 sec) 
Heartbeat CPU  0 instructions:  181000003 cycles:  297171588 heartbeat IPC: 0.46037 cumulative IPC: 0.35628 (Simulation time: 0 hr 8 min 17 sec) 
Heartbeat CPU  0 instructions:  182000003 cycles:  299239273 heartbeat IPC: 0.48363 cumulative IPC: 0.35743 (Simulation time: 0 hr 8 min 20 sec) 
Heartbeat CPU  0 instructions:  183000000 cycles:  301261613 heartbeat IPC: 0.49448 cumulative IPC: 0.35862 (Simulation time: 0 hr 8 min 22 sec) 
Heartbeat CPU  0 instructions:  184000000 cycles:  303366491 heartbeat IPC: 0.47509 cumulative IPC: 0.35967 (Simulation time: 0 hr 8 min 25 sec) 
Heartbeat CPU  0 instructions:  185000002 cycles:  305463744 heartbeat IPC: 0.47682 cumulative IPC: 0.36072 (Simulation time: 0 hr 8 min 28 sec) 
Heartbeat CPU  0 instructions:  186000001 cycles:  307418883 heartbeat IPC: 0.51147 cumulative IPC: 0.36196 (Simulation time: 0 hr 8 min 31 sec) 
Heartbeat CPU  0 instructions:  187000000 cycles:  309519676 heartbeat IPC: 0.47601 cumulative IPC: 0.36296 (Simulation time: 0 hr 8 min 33 sec) 
Heartbeat CPU  0 instructions:  188000000 cycles:  311645578 heartbeat IPC: 0.47039 cumulative IPC: 0.36390 (Simulation time: 0 hr 8 min 36 sec) 
Heartbeat CPU  0 instructions:  189000000 cycles:  313634615 heartbeat IPC: 0.50276 cumulative IPC: 0.36503 (Simulation time: 0 hr 8 min 39 sec) 
Heartbeat CPU  0 instructions:  190000000 cycles:  315703749 heartbeat IPC: 0.48329 cumulative IPC: 0.36603 (Simulation time: 0 hr 8 min 42 sec) 
Heartbeat CPU  0 instructions:  191000000 cycles:  317816177 heartbeat IPC: 0.47339 cumulative IPC: 0.36694 (Simulation time: 0 hr 8 min 44 sec) 
Heartbeat CPU  0 instructions:  192000000 cycles:  319844680 heartbeat IPC: 0.49297 cumulative IPC: 0.36797 (Simulation time: 0 hr 8 min 47 sec) 
Heartbeat CPU  0 instructions:  193000001 cycles:  321818735 heartbeat IPC: 0.50657 cumulative IPC: 0.36905 (Simulation time: 0 hr 8 min 49 sec) 
Heartbeat CPU  0 instructions:  194000000 cycles:  323931871 heartbeat IPC: 0.47323 cumulative IPC: 0.36992 (Simulation time: 0 hr 8 min 52 sec) 
Heartbeat CPU  0 instructions:  195000002 cycles:  326015637 heartbeat IPC: 0.47990 cumulative IPC: 0.37081 (Simulation time: 0 hr 8 min 54 sec) 
Heartbeat CPU  0 instructions:  196000000 cycles:  327968454 heartbeat IPC: 0.51208 cumulative IPC: 0.37188 (Simulation time: 0 hr 8 min 57 sec) 
Heartbeat CPU  0 instructions:  197000000 cycles:  330177959 heartbeat IPC: 0.45259 cumulative IPC: 0.37257 (Simulation time: 0 hr 8 min 59 sec) 
Heartbeat CPU  0 instructions:  198000003 cycles:  345597866 heartbeat IPC: 0.06485 cumulative IPC: 0.35536 (Simulation time: 0 hr 9 min 2 sec) 
Heartbeat CPU  0 instructions:  199000001 cycles:  349091401 heartbeat IPC: 0.28624 cumulative IPC: 0.35450 (Simulation time: 0 hr 9 min 5 sec) 
Heartbeat CPU  0 instructions:  200000000 cycles:  351240045 heartbeat IPC: 0.46541 cumulative IPC: 0.35534 (Simulation time: 0 hr 9 min 7 sec) 
Finished CPU 0 instructions: 100000000 cycles: 281418681 cumulative IPC: 0.35534 (Simulation time: 0 hr 9 min 7 sec) 

ChampSim completed all CPUs

[ROI Statistics]
Core_0_instructions 100000000
Core_0_cycles 281418681
Core_0_IPC 0.35534

Core_0_branch_prediction_accuracy 99.16976
Core_0_branch_MPKI 0.01138
Core_0_average_ROB_occupancy_at_mispredict 253.38752

Core_0_L1D_total_access 50974999
Core_0_L1D_total_hit 50152267
Core_0_L1D_total_miss 822732
Core_0_L1D_loads 34234273
Core_0_L1D_load_hit 33575782
Core_0_L1D_load_miss 658491
Core_0_L1D_RFOs 16740726
Core_0_L1D_RFO_hit 16576485
Core_0_L1D_RFO_miss 164241
Core_0_L1D_prefetches 0
Core_0_L1D_prefetch_hit 0
Core_0_L1D_prefetch_miss 0
Core_0_L1D_writebacks 0
Core_0_L1D_writeback_hit 0
Core_0_L1D_writeback_miss 0
Core_0_L1D_prefetch_requested 0
Core_0_L1D_prefetch_issued 0
Core_0_L1D_prefetch_useful 0
Core_0_L1D_prefetch_useless 0
Core_0_L1D_prefetch_late 0
Core_0_L1D_average_miss_latency 178.46679

Core_0_L1I_total_access 26867442
Core_0_L1I_total_hit 26867442
Core_0_L1I_total_miss 0
Core_0_L1I_loads 26867442
Core_0_L1I_load_hit 26867442
Core_0_L1I_load_miss 0
Core_0_L1I_RFOs 0
Core_0_L1I_RFO_hit 0
Core_0_L1I_RFO_miss 0
Core_0_L1I_prefetches 0
Core_0_L1I_prefetch_hit 0
Core_0_L1I_prefetch_miss 0
Core_0_L1I_writebacks 0
Core_0_L1I_writeback_hit 0
Core_0_L1I_writeback_miss 0
Core_0_L1I_prefetch_requested 0
Core_0_L1I_prefetch_issued 0
Core_0_L1I_prefetch_useful 0
Core_0_L1I_prefetch_useless 0
Core_0_L1I_prefetch_late 0
Core_0_L1I_average_miss_latency -nan

Core_0_L2C_total_access 993873
Core_0_L2C_total_hit 450994
Core_0_L2C_total_miss 542879
Core_0_L2C_loads 658491
Core_0_L2C_load_hit 280027
Core_0_L2C_load_miss 378464
Core_0_L2C_RFOs 164241
Core_0_L2C_RFO_hit 16
Core_0_L2C_RFO_miss 164225
Core_0_L2C_prefetches 0
Core_0_L2C_prefetch_hit 0
Core_0_L2C_prefetch_miss 0
Core_0_L2C_writebacks 171141
Core_0_L2C_writeback_hit 170951
Core_0_L2C_writeback_miss 190
Core_0_L2C_prefetch_requested 0
Core_0_L2C_prefetch_issued 0
Core_0_L2C_prefetch_useful 0
Core_0_L2C_prefetch_useless 0
Core_0_L2C_prefetch_late 0
Core_0_L2C_average_miss_latency 217.14933

Core_0_LLC_total_access 706499
Core_0_LLC_total_hit 136902
Core_0_LLC_total_miss 569597
Core_0_LLC_loads 378464
Core_0_LLC_load_hit 82062
Core_0_LLC_load_miss 296402
Core_0_LLC_RFOs 164225
Core_0_LLC_RFO_hit 23984
Core_0_LLC_RFO_miss 140241
Core_0_LLC_prefetches 0
Core_0_LLC_prefetch_hit 0
Core_0_LLC_prefetch_miss 0
Core_0_LLC_writebacks 163810
Core_0_LLC_writeback_hit 30856
Core_0_LLC_writeback_miss 132954
Core_0_LLC_prefetch_requested 0
Core_0_LLC_prefetch_issued 0
Core_0_LLC_prefetch_useful 0
Core_0_LLC_prefetch_useless 0
Core_0_LLC_prefetch_late 0
Core_0_LLC_average_miss_latency 156.65765

Core_0_major_page_fault 0
Core_0_minor_page_fault 8761

Channel_0_RQ_row_buffer_hit 92370
Channel_0_RQ_row_buffer_miss 344273
Channel_0_WQ_row_buffer_hit 21437
Channel_0_WQ_row_buffer_miss 118465
Channel_0_WQ_full 0
Channel_0_dbus_congested 123519

avg_congested_cycle 10
