*************************************************
   ChampSim Multicore Out-of-Order Simulator
   Last compiled: Dec 22 2023 18:44:16
*************************************************

trace_0 ./test_trace/436.cactusADM-1804B.champsimtrace.xz
CPU 0 L2C next line prefetcher
LLC Next Line Prefetcher
warmup_instructions 100000000
simulation_instructions 100000000
champsim_seed 271

num_cpus 1
cpu_freq 4000
dram_io_freq 2400
page_size 4096
block_size 64
max_read_per_cycle 8
max_fill_per_cycle 1
dram_channels 1
dram_ranks 1
dram_banks 8
dram_rows 65536
dram_columns 128
dram_row_size 8
dram_size 4096
dram_pages 1048576

fetch_width 6
decode_width 6
exec_width 4
lq_width 2
sq_width 2
retire_width 4
scheduler_size 128
branch_mispredict_penalty 20
rob_size 256
lq_size 72
sq_size 56
num_instr_destinations_sparc 4
num_instr_destinations 2
num_instr_sources 4

itlb_set 16
itlb_way 8
itlb_rq_size 16
itlb_wq_size 16
itlb_pq_size 0
itlb_mshr_size 8
itlb_latency 1

dtlb_set 16
dtlb_way 4
dtlb_rq_size 16
dtlb_wq_size 16
dtlb_pq_size 0
dtlb_mshr_size 8
dtlb_latency 1

stlb_set 128
stlb_way 12
stlb_rq_size 32
stlb_wq_size 32
stlb_pq_size 0
stlb_mshr_size 16
stlb_latency 8

l1i_size 32
l1i_set 64
l1i_way 8
l1i_rq_size 64
l1i_wq_size 64
l1i_pq_size 8
l1i_mshr_size 8
l1i_latency 1

l1d_size 32
l1d_set 64
l1d_way 8
l1d_rq_size 64
l1d_wq_size 64
l1d_pq_size 8
l1d_mshr_size 16
l1d_latency 4

l2c_size 512
l2c_set 1024
l2c_way 8
l2c_rq_size 32
l2c_wq_size 32
l2c_pq_size 16
l2c_mshr_size 32
l2c_latency 10

llc_size 2048
llc_set 2048
llc_way 16
llc_rq_size 32
llc_wq_size 32
llc_pq_size 32
llc_mshr_size 64
llc_latency 20

dram_channel_width 8
dram_wq_size 64
dram_rq_size 64
tRP 15
tRCD 15
tCAS 12.5
dram_dbus_turn_around_time 30
dram_write_high_wm 56
dram_write_low_wm 48
min_dram_writes_per_switch 16
dram_mtps 2400
dram_dbus_return_time 13


Heartbeat CPU  0 instructions:    1000000 cycles:     702356 heartbeat IPC: 1.42378 cumulative IPC: 1.42378 (Simulation time: 0 hr 0 min 1 sec) 
Heartbeat CPU  0 instructions:    2000000 cycles:    1404559 heartbeat IPC: 1.42409 cumulative IPC: 1.42393 (Simulation time: 0 hr 0 min 3 sec) 
Heartbeat CPU  0 instructions:    3000000 cycles:    2106853 heartbeat IPC: 1.42391 cumulative IPC: 1.42392 (Simulation time: 0 hr 0 min 5 sec) 
Heartbeat CPU  0 instructions:    4000000 cycles:    2809168 heartbeat IPC: 1.42386 cumulative IPC: 1.42391 (Simulation time: 0 hr 0 min 7 sec) 
Heartbeat CPU  0 instructions:    5000000 cycles:    3511345 heartbeat IPC: 1.42414 cumulative IPC: 1.42396 (Simulation time: 0 hr 0 min 8 sec) 
Heartbeat CPU  0 instructions:    6000000 cycles:    4213664 heartbeat IPC: 1.42385 cumulative IPC: 1.42394 (Simulation time: 0 hr 0 min 10 sec) 
Heartbeat CPU  0 instructions:    7000001 cycles:    4916048 heartbeat IPC: 1.42372 cumulative IPC: 1.42391 (Simulation time: 0 hr 0 min 12 sec) 
Heartbeat CPU  0 instructions:    8000000 cycles:    5618161 heartbeat IPC: 1.42427 cumulative IPC: 1.42395 (Simulation time: 0 hr 0 min 14 sec) 
Heartbeat CPU  0 instructions:    9000001 cycles:    6320630 heartbeat IPC: 1.42355 cumulative IPC: 1.42391 (Simulation time: 0 hr 0 min 16 sec) 
Heartbeat CPU  0 instructions:   10000000 cycles:    7022803 heartbeat IPC: 1.42415 cumulative IPC: 1.42393 (Simulation time: 0 hr 0 min 17 sec) 
Heartbeat CPU  0 instructions:   11000002 cycles:    7724985 heartbeat IPC: 1.42414 cumulative IPC: 1.42395 (Simulation time: 0 hr 0 min 19 sec) 
Heartbeat CPU  0 instructions:   12000000 cycles:    8427111 heartbeat IPC: 1.42424 cumulative IPC: 1.42398 (Simulation time: 0 hr 0 min 21 sec) 
Heartbeat CPU  0 instructions:   13000000 cycles:    9129668 heartbeat IPC: 1.42337 cumulative IPC: 1.42393 (Simulation time: 0 hr 0 min 23 sec) 
Heartbeat CPU  0 instructions:   14000002 cycles:    9831915 heartbeat IPC: 1.42400 cumulative IPC: 1.42393 (Simulation time: 0 hr 0 min 24 sec) 
Heartbeat CPU  0 instructions:   15000002 cycles:   10533819 heartbeat IPC: 1.42470 cumulative IPC: 1.42399 (Simulation time: 0 hr 0 min 26 sec) 
Heartbeat CPU  0 instructions:   16000000 cycles:   11236339 heartbeat IPC: 1.42344 cumulative IPC: 1.42395 (Simulation time: 0 hr 0 min 28 sec) 
Heartbeat CPU  0 instructions:   17000000 cycles:   11938860 heartbeat IPC: 1.42344 cumulative IPC: 1.42392 (Simulation time: 0 hr 0 min 30 sec) 
Heartbeat CPU  0 instructions:   18000001 cycles:   12599105 heartbeat IPC: 1.51459 cumulative IPC: 1.42867 (Simulation time: 0 hr 0 min 32 sec) 
Heartbeat CPU  0 instructions:   19000000 cycles:   13233108 heartbeat IPC: 1.57728 cumulative IPC: 1.43579 (Simulation time: 0 hr 0 min 33 sec) 
Heartbeat CPU  0 instructions:   20000000 cycles:   13935613 heartbeat IPC: 1.42348 cumulative IPC: 1.43517 (Simulation time: 0 hr 0 min 35 sec) 
Heartbeat CPU  0 instructions:   21000000 cycles:   14637972 heartbeat IPC: 1.42377 cumulative IPC: 1.43462 (Simulation time: 0 hr 0 min 37 sec) 
Heartbeat CPU  0 instructions:   22000002 cycles:   15340267 heartbeat IPC: 1.42391 cumulative IPC: 1.43413 (Simulation time: 0 hr 0 min 39 sec) 
Heartbeat CPU  0 instructions:   23000001 cycles:   16042632 heartbeat IPC: 1.42376 cumulative IPC: 1.43368 (Simulation time: 0 hr 0 min 40 sec) 
Heartbeat CPU  0 instructions:   24000000 cycles:   16744733 heartbeat IPC: 1.42430 cumulative IPC: 1.43329 (Simulation time: 0 hr 0 min 42 sec) 
Heartbeat CPU  0 instructions:   25000001 cycles:   17447042 heartbeat IPC: 1.42388 cumulative IPC: 1.43291 (Simulation time: 0 hr 0 min 44 sec) 
Heartbeat CPU  0 instructions:   26000003 cycles:   18149637 heartbeat IPC: 1.42330 cumulative IPC: 1.43254 (Simulation time: 0 hr 0 min 46 sec) 
Heartbeat CPU  0 instructions:   27000003 cycles:   18851822 heartbeat IPC: 1.42413 cumulative IPC: 1.43222 (Simulation time: 0 hr 0 min 48 sec) 
Heartbeat CPU  0 instructions:   28000000 cycles:   19553944 heartbeat IPC: 1.42425 cumulative IPC: 1.43194 (Simulation time: 0 hr 0 min 49 sec) 
Heartbeat CPU  0 instructions:   29000000 cycles:   20256377 heartbeat IPC: 1.42362 cumulative IPC: 1.43165 (Simulation time: 0 hr 0 min 51 sec) 
Heartbeat CPU  0 instructions:   30000003 cycles:   20958725 heartbeat IPC: 1.42380 cumulative IPC: 1.43138 (Simulation time: 0 hr 0 min 53 sec) 
Heartbeat CPU  0 instructions:   31000003 cycles:   21660670 heartbeat IPC: 1.42461 cumulative IPC: 1.43117 (Simulation time: 0 hr 0 min 55 sec) 
Heartbeat CPU  0 instructions:   32000000 cycles:   22362735 heartbeat IPC: 1.42437 cumulative IPC: 1.43095 (Simulation time: 0 hr 0 min 57 sec) 
Heartbeat CPU  0 instructions:   33000001 cycles:   23065436 heartbeat IPC: 1.42308 cumulative IPC: 1.43071 (Simulation time: 0 hr 0 min 58 sec) 
Heartbeat CPU  0 instructions:   34000000 cycles:   23767541 heartbeat IPC: 1.42429 cumulative IPC: 1.43052 (Simulation time: 0 hr 1 min 0 sec) 
Heartbeat CPU  0 instructions:   35000001 cycles:   24469778 heartbeat IPC: 1.42402 cumulative IPC: 1.43034 (Simulation time: 0 hr 1 min 2 sec) 
Heartbeat CPU  0 instructions:   36000000 cycles:   25172019 heartbeat IPC: 1.42401 cumulative IPC: 1.43016 (Simulation time: 0 hr 1 min 4 sec) 
Heartbeat CPU  0 instructions:   37000000 cycles:   25874580 heartbeat IPC: 1.42336 cumulative IPC: 1.42997 (Simulation time: 0 hr 1 min 6 sec) 
Heartbeat CPU  0 instructions:   38000001 cycles:   26576755 heartbeat IPC: 1.42415 cumulative IPC: 1.42982 (Simulation time: 0 hr 1 min 7 sec) 
Heartbeat CPU  0 instructions:   39000000 cycles:   27278998 heartbeat IPC: 1.42401 cumulative IPC: 1.42967 (Simulation time: 0 hr 1 min 9 sec) 
Heartbeat CPU  0 instructions:   40000000 cycles:   27981263 heartbeat IPC: 1.42396 cumulative IPC: 1.42953 (Simulation time: 0 hr 1 min 11 sec) 
Heartbeat CPU  0 instructions:   41000000 cycles:   28584756 heartbeat IPC: 1.65702 cumulative IPC: 1.43433 (Simulation time: 0 hr 1 min 13 sec) 
Heartbeat CPU  0 instructions:   42000002 cycles:   29275916 heartbeat IPC: 1.44685 cumulative IPC: 1.43463 (Simulation time: 0 hr 1 min 14 sec) 
Heartbeat CPU  0 instructions:   43000002 cycles:   29978301 heartbeat IPC: 1.42372 cumulative IPC: 1.43437 (Simulation time: 0 hr 1 min 16 sec) 
Heartbeat CPU  0 instructions:   44000000 cycles:   30680712 heartbeat IPC: 1.42367 cumulative IPC: 1.43413 (Simulation time: 0 hr 1 min 18 sec) 
Heartbeat CPU  0 instructions:   45000003 cycles:   31382974 heartbeat IPC: 1.42397 cumulative IPC: 1.43390 (Simulation time: 0 hr 1 min 20 sec) 
Heartbeat CPU  0 instructions:   46000003 cycles:   32085160 heartbeat IPC: 1.42412 cumulative IPC: 1.43368 (Simulation time: 0 hr 1 min 22 sec) 
Heartbeat CPU  0 instructions:   47000000 cycles:   32787323 heartbeat IPC: 1.42417 cumulative IPC: 1.43348 (Simulation time: 0 hr 1 min 23 sec) 
Heartbeat CPU  0 instructions:   48000000 cycles:   33489909 heartbeat IPC: 1.42331 cumulative IPC: 1.43327 (Simulation time: 0 hr 1 min 25 sec) 
Heartbeat CPU  0 instructions:   49000000 cycles:   34191927 heartbeat IPC: 1.42446 cumulative IPC: 1.43309 (Simulation time: 0 hr 1 min 27 sec) 
Heartbeat CPU  0 instructions:   50000000 cycles:   34894229 heartbeat IPC: 1.42389 cumulative IPC: 1.43290 (Simulation time: 0 hr 1 min 29 sec) 
Heartbeat CPU  0 instructions:   51000000 cycles:   35596719 heartbeat IPC: 1.42351 cumulative IPC: 1.43272 (Simulation time: 0 hr 1 min 31 sec) 
Heartbeat CPU  0 instructions:   52000000 cycles:   36298898 heartbeat IPC: 1.42414 cumulative IPC: 1.43255 (Simulation time: 0 hr 1 min 32 sec) 
Heartbeat CPU  0 instructions:   53000000 cycles:   37001292 heartbeat IPC: 1.42370 cumulative IPC: 1.43238 (Simulation time: 0 hr 1 min 34 sec) 
Heartbeat CPU  0 instructions:   54000001 cycles:   37703349 heartbeat IPC: 1.42439 cumulative IPC: 1.43223 (Simulation time: 0 hr 1 min 36 sec) 
Heartbeat CPU  0 instructions:   55000001 cycles:   38405617 heartbeat IPC: 1.42396 cumulative IPC: 1.43208 (Simulation time: 0 hr 1 min 38 sec) 
Heartbeat CPU  0 instructions:   56000000 cycles:   39108084 heartbeat IPC: 1.42355 cumulative IPC: 1.43193 (Simulation time: 0 hr 1 min 39 sec) 
Heartbeat CPU  0 instructions:   57000000 cycles:   39810556 heartbeat IPC: 1.42354 cumulative IPC: 1.43178 (Simulation time: 0 hr 1 min 41 sec) 
Heartbeat CPU  0 instructions:   58000003 cycles:   40512852 heartbeat IPC: 1.42391 cumulative IPC: 1.43164 (Simulation time: 0 hr 1 min 43 sec) 
Heartbeat CPU  0 instructions:   59000000 cycles:   41214982 heartbeat IPC: 1.42423 cumulative IPC: 1.43152 (Simulation time: 0 hr 1 min 45 sec) 
Heartbeat CPU  0 instructions:   60000000 cycles:   41917394 heartbeat IPC: 1.42367 cumulative IPC: 1.43139 (Simulation time: 0 hr 1 min 47 sec) 
Heartbeat CPU  0 instructions:   61000000 cycles:   42619571 heartbeat IPC: 1.42414 cumulative IPC: 1.43127 (Simulation time: 0 hr 1 min 48 sec) 
Heartbeat CPU  0 instructions:   62000002 cycles:   43321831 heartbeat IPC: 1.42398 cumulative IPC: 1.43115 (Simulation time: 0 hr 1 min 50 sec) 
Heartbeat CPU  0 instructions:   63000000 cycles:   43968160 heartbeat IPC: 1.54720 cumulative IPC: 1.43286 (Simulation time: 0 hr 1 min 52 sec) 
Heartbeat CPU  0 instructions:   64000000 cycles:   44618318 heartbeat IPC: 1.53809 cumulative IPC: 1.43439 (Simulation time: 0 hr 1 min 54 sec) 
Heartbeat CPU  0 instructions:   65000000 cycles:   45320343 heartbeat IPC: 1.42445 cumulative IPC: 1.43423 (Simulation time: 0 hr 1 min 55 sec) 
Heartbeat CPU  0 instructions:   66000001 cycles:   46022413 heartbeat IPC: 1.42436 cumulative IPC: 1.43408 (Simulation time: 0 hr 1 min 57 sec) 
Heartbeat CPU  0 instructions:   67000002 cycles:   46724517 heartbeat IPC: 1.42429 cumulative IPC: 1.43394 (Simulation time: 0 hr 1 min 59 sec) 
Heartbeat CPU  0 instructions:   68000000 cycles:   47426899 heartbeat IPC: 1.42372 cumulative IPC: 1.43379 (Simulation time: 0 hr 2 min 1 sec) 
Heartbeat CPU  0 instructions:   69000000 cycles:   48129068 heartbeat IPC: 1.42416 cumulative IPC: 1.43365 (Simulation time: 0 hr 2 min 3 sec) 
Heartbeat CPU  0 instructions:   70000002 cycles:   48831169 heartbeat IPC: 1.42430 cumulative IPC: 1.43351 (Simulation time: 0 hr 2 min 4 sec) 
Heartbeat CPU  0 instructions:   71000003 cycles:   49533790 heartbeat IPC: 1.42324 cumulative IPC: 1.43336 (Simulation time: 0 hr 2 min 6 sec) 
Heartbeat CPU  0 instructions:   72000000 cycles:   50235844 heartbeat IPC: 1.42439 cumulative IPC: 1.43324 (Simulation time: 0 hr 2 min 8 sec) 
Heartbeat CPU  0 instructions:   73000001 cycles:   50937987 heartbeat IPC: 1.42421 cumulative IPC: 1.43312 (Simulation time: 0 hr 2 min 10 sec) 
Heartbeat CPU  0 instructions:   74000003 cycles:   51640289 heartbeat IPC: 1.42389 cumulative IPC: 1.43299 (Simulation time: 0 hr 2 min 12 sec) 
Heartbeat CPU  0 instructions:   75000002 cycles:   52342950 heartbeat IPC: 1.42316 cumulative IPC: 1.43286 (Simulation time: 0 hr 2 min 14 sec) 
Heartbeat CPU  0 instructions:   76000000 cycles:   53045144 heartbeat IPC: 1.42411 cumulative IPC: 1.43274 (Simulation time: 0 hr 2 min 15 sec) 
Heartbeat CPU  0 instructions:   77000003 cycles:   53747734 heartbeat IPC: 1.42331 cumulative IPC: 1.43262 (Simulation time: 0 hr 2 min 17 sec) 
Heartbeat CPU  0 instructions:   78000001 cycles:   54450221 heartbeat IPC: 1.42351 cumulative IPC: 1.43250 (Simulation time: 0 hr 2 min 19 sec) 
Heartbeat CPU  0 instructions:   79000001 cycles:   55152141 heartbeat IPC: 1.42466 cumulative IPC: 1.43240 (Simulation time: 0 hr 2 min 21 sec) 
Heartbeat CPU  0 instructions:   80000000 cycles:   55854178 heartbeat IPC: 1.42442 cumulative IPC: 1.43230 (Simulation time: 0 hr 2 min 23 sec) 
Heartbeat CPU  0 instructions:   81000002 cycles:   56556514 heartbeat IPC: 1.42382 cumulative IPC: 1.43220 (Simulation time: 0 hr 2 min 24 sec) 
Heartbeat CPU  0 instructions:   82000003 cycles:   57258745 heartbeat IPC: 1.42403 cumulative IPC: 1.43210 (Simulation time: 0 hr 2 min 26 sec) 
Heartbeat CPU  0 instructions:   83000001 cycles:   57960984 heartbeat IPC: 1.42401 cumulative IPC: 1.43200 (Simulation time: 0 hr 2 min 28 sec) 
Heartbeat CPU  0 instructions:   84000000 cycles:   58663207 heartbeat IPC: 1.42405 cumulative IPC: 1.43190 (Simulation time: 0 hr 2 min 30 sec) 
Heartbeat CPU  0 instructions:   85000000 cycles:   59351585 heartbeat IPC: 1.45269 cumulative IPC: 1.43214 (Simulation time: 0 hr 2 min 32 sec) 
Heartbeat CPU  0 instructions:   86000002 cycles:   59959071 heartbeat IPC: 1.64613 cumulative IPC: 1.43431 (Simulation time: 0 hr 2 min 33 sec) 
Heartbeat CPU  0 instructions:   87000002 cycles:   60661514 heartbeat IPC: 1.42360 cumulative IPC: 1.43419 (Simulation time: 0 hr 2 min 35 sec) 
Heartbeat CPU  0 instructions:   88000000 cycles:   61364139 heartbeat IPC: 1.42323 cumulative IPC: 1.43406 (Simulation time: 0 hr 2 min 37 sec) 
Heartbeat CPU  0 instructions:   89000001 cycles:   62066174 heartbeat IPC: 1.42443 cumulative IPC: 1.43395 (Simulation time: 0 hr 2 min 39 sec) 
Heartbeat CPU  0 instructions:   90000003 cycles:   62768489 heartbeat IPC: 1.42387 cumulative IPC: 1.43384 (Simulation time: 0 hr 2 min 41 sec) 
Heartbeat CPU  0 instructions:   91000003 cycles:   63470900 heartbeat IPC: 1.42367 cumulative IPC: 1.43373 (Simulation time: 0 hr 2 min 42 sec) 
Heartbeat CPU  0 instructions:   92000000 cycles:   64173100 heartbeat IPC: 1.42409 cumulative IPC: 1.43362 (Simulation time: 0 hr 2 min 44 sec) 
Heartbeat CPU  0 instructions:   93000002 cycles:   64875462 heartbeat IPC: 1.42377 cumulative IPC: 1.43352 (Simulation time: 0 hr 2 min 46 sec) 
Heartbeat CPU  0 instructions:   94000002 cycles:   65577485 heartbeat IPC: 1.42445 cumulative IPC: 1.43342 (Simulation time: 0 hr 2 min 48 sec) 
Heartbeat CPU  0 instructions:   95000003 cycles:   66279641 heartbeat IPC: 1.42419 cumulative IPC: 1.43332 (Simulation time: 0 hr 2 min 49 sec) 
Heartbeat CPU  0 instructions:   96000000 cycles:   66981896 heartbeat IPC: 1.42398 cumulative IPC: 1.43322 (Simulation time: 0 hr 2 min 51 sec) 
Heartbeat CPU  0 instructions:   97000000 cycles:   67684228 heartbeat IPC: 1.42383 cumulative IPC: 1.43313 (Simulation time: 0 hr 2 min 53 sec) 
Heartbeat CPU  0 instructions:   98000002 cycles:   68386413 heartbeat IPC: 1.42413 cumulative IPC: 1.43303 (Simulation time: 0 hr 2 min 55 sec) 
Heartbeat CPU  0 instructions:   99000003 cycles:   69088625 heartbeat IPC: 1.42407 cumulative IPC: 1.43294 (Simulation time: 0 hr 2 min 57 sec) 
Heartbeat CPU  0 instructions:  100000000 cycles:   69790995 heartbeat IPC: 1.42375 cumulative IPC: 1.43285 (Simulation time: 0 hr 2 min 58 sec) 

Warmup complete CPU  0 instructions:  100000001 cycles:   69791015 (Simulation time: 0 hr 2 min 58 sec) 

Heartbeat CPU  0 instructions:  101000000 cycles:   71713363 heartbeat IPC: 0.52019 cumulative IPC: 0.52020 (Simulation time: 0 hr 3 min 1 sec) 
Heartbeat CPU  0 instructions:  102000003 cycles:   73466446 heartbeat IPC: 0.57043 cumulative IPC: 0.54415 (Simulation time: 0 hr 3 min 3 sec) 
Heartbeat CPU  0 instructions:  103000003 cycles:   75329957 heartbeat IPC: 0.53662 cumulative IPC: 0.54162 (Simulation time: 0 hr 3 min 5 sec) 
Heartbeat CPU  0 instructions:  104000000 cycles:   77241159 heartbeat IPC: 0.52323 cumulative IPC: 0.53690 (Simulation time: 0 hr 3 min 7 sec) 
Heartbeat CPU  0 instructions:  105000002 cycles:   79073992 heartbeat IPC: 0.54560 cumulative IPC: 0.53862 (Simulation time: 0 hr 3 min 9 sec) 
Heartbeat CPU  0 instructions:  106000000 cycles:   80867281 heartbeat IPC: 0.55763 cumulative IPC: 0.54170 (Simulation time: 0 hr 3 min 11 sec) 
Heartbeat CPU  0 instructions:  107000003 cycles:   82775134 heartbeat IPC: 0.52415 cumulative IPC: 0.53912 (Simulation time: 0 hr 3 min 13 sec) 
Heartbeat CPU  0 instructions:  108000000 cycles:   93547399 heartbeat IPC: 0.09283 cumulative IPC: 0.33675 (Simulation time: 0 hr 3 min 15 sec) 
Heartbeat CPU  0 instructions:  109000003 cycles:  100341938 heartbeat IPC: 0.14718 cumulative IPC: 0.29459 (Simulation time: 0 hr 3 min 17 sec) 
Heartbeat CPU  0 instructions:  110000001 cycles:  102248144 heartbeat IPC: 0.52460 cumulative IPC: 0.30810 (Simulation time: 0 hr 3 min 19 sec) 
Heartbeat CPU  0 instructions:  111000000 cycles:  104161940 heartbeat IPC: 0.52252 cumulative IPC: 0.32004 (Simulation time: 0 hr 3 min 22 sec) 
Heartbeat CPU  0 instructions:  112000000 cycles:  105925792 heartbeat IPC: 0.56694 cumulative IPC: 0.33209 (Simulation time: 0 hr 3 min 24 sec) 
Heartbeat CPU  0 instructions:  113000000 cycles:  107791967 heartbeat IPC: 0.53586 cumulative IPC: 0.34210 (Simulation time: 0 hr 3 min 26 sec) 
Heartbeat CPU  0 instructions:  114000000 cycles:  109715744 heartbeat IPC: 0.51981 cumulative IPC: 0.35066 (Simulation time: 0 hr 3 min 28 sec) 
Heartbeat CPU  0 instructions:  115000001 cycles:  111547541 heartbeat IPC: 0.54591 cumulative IPC: 0.35923 (Simulation time: 0 hr 3 min 30 sec) 
Heartbeat CPU  0 instructions:  116000000 cycles:  113340336 heartbeat IPC: 0.55779 cumulative IPC: 0.36740 (Simulation time: 0 hr 3 min 32 sec) 
Heartbeat CPU  0 instructions:  117000003 cycles:  115255699 heartbeat IPC: 0.52210 cumulative IPC: 0.37392 (Simulation time: 0 hr 3 min 34 sec) 
Heartbeat CPU  0 instructions:  118000002 cycles:  117155304 heartbeat IPC: 0.52642 cumulative IPC: 0.38003 (Simulation time: 0 hr 3 min 36 sec) 
Heartbeat CPU  0 instructions:  119000002 cycles:  118897512 heartbeat IPC: 0.57398 cumulative IPC: 0.38691 (Simulation time: 0 hr 3 min 38 sec) 
Heartbeat CPU  0 instructions:  120000000 cycles:  120798966 heartbeat IPC: 0.52591 cumulative IPC: 0.39210 (Simulation time: 0 hr 3 min 40 sec) 
Heartbeat CPU  0 instructions:  121000003 cycles:  122710909 heartbeat IPC: 0.52303 cumulative IPC: 0.39683 (Simulation time: 0 hr 3 min 42 sec) 
Heartbeat CPU  0 instructions:  122000002 cycles:  124486459 heartbeat IPC: 0.56321 cumulative IPC: 0.40223 (Simulation time: 0 hr 3 min 44 sec) 
Heartbeat CPU  0 instructions:  123000002 cycles:  126335647 heartbeat IPC: 0.54078 cumulative IPC: 0.40676 (Simulation time: 0 hr 3 min 46 sec) 
Heartbeat CPU  0 instructions:  124000000 cycles:  128251974 heartbeat IPC: 0.52183 cumulative IPC: 0.41053 (Simulation time: 0 hr 3 min 48 sec) 
Heartbeat CPU  0 instructions:  125000000 cycles:  130106066 heartbeat IPC: 0.53935 cumulative IPC: 0.41449 (Simulation time: 0 hr 3 min 50 sec) 
Heartbeat CPU  0 instructions:  126000002 cycles:  131894238 heartbeat IPC: 0.55923 cumulative IPC: 0.41866 (Simulation time: 0 hr 3 min 53 sec) 
Heartbeat CPU  0 instructions:  127000002 cycles:  133927577 heartbeat IPC: 0.49180 cumulative IPC: 0.42098 (Simulation time: 0 hr 3 min 55 sec) 
Heartbeat CPU  0 instructions:  128000000 cycles:  135832071 heartbeat IPC: 0.52507 cumulative IPC: 0.42398 (Simulation time: 0 hr 3 min 57 sec) 
Heartbeat CPU  0 instructions:  129000001 cycles:  137570969 heartbeat IPC: 0.57508 cumulative IPC: 0.42786 (Simulation time: 0 hr 3 min 59 sec) 
Heartbeat CPU  0 instructions:  130000000 cycles:  143103429 heartbeat IPC: 0.18075 cumulative IPC: 0.40921 (Simulation time: 0 hr 4 min 1 sec) 
Heartbeat CPU  0 instructions:  131000003 cycles:  155253480 heartbeat IPC: 0.08230 cumulative IPC: 0.36273 (Simulation time: 0 hr 4 min 3 sec) 
Heartbeat CPU  0 instructions:  132000000 cycles:  157031168 heartbeat IPC: 0.56253 cumulative IPC: 0.36680 (Simulation time: 0 hr 4 min 5 sec) 
Heartbeat CPU  0 instructions:  133000000 cycles:  158882379 heartbeat IPC: 0.54019 cumulative IPC: 0.37041 (Simulation time: 0 hr 4 min 7 sec) 
Heartbeat CPU  0 instructions:  134000000 cycles:  160799114 heartbeat IPC: 0.52172 cumulative IPC: 0.37359 (Simulation time: 0 hr 4 min 9 sec) 
Heartbeat CPU  0 instructions:  135000000 cycles:  162651252 heartbeat IPC: 0.53992 cumulative IPC: 0.37691 (Simulation time: 0 hr 4 min 12 sec) 
Heartbeat CPU  0 instructions:  136000000 cycles:  164427945 heartbeat IPC: 0.56284 cumulative IPC: 0.38040 (Simulation time: 0 hr 4 min 14 sec) 
Heartbeat CPU  0 instructions:  137000002 cycles:  166343369 heartbeat IPC: 0.52208 cumulative IPC: 0.38321 (Simulation time: 0 hr 4 min 16 sec) 
Heartbeat CPU  0 instructions:  138000001 cycles:  168249202 heartbeat IPC: 0.52470 cumulative IPC: 0.38595 (Simulation time: 0 hr 4 min 18 sec) 
Heartbeat CPU  0 instructions:  139000001 cycles:  169987717 heartbeat IPC: 0.57520 cumulative IPC: 0.38923 (Simulation time: 0 hr 4 min 20 sec) 
Heartbeat CPU  0 instructions:  140000000 cycles:  171892656 heartbeat IPC: 0.52495 cumulative IPC: 0.39177 (Simulation time: 0 hr 4 min 22 sec) 
Heartbeat CPU  0 instructions:  141000000 cycles:  173808253 heartbeat IPC: 0.52203 cumulative IPC: 0.39417 (Simulation time: 0 hr 4 min 24 sec) 
Heartbeat CPU  0 instructions:  142000001 cycles:  175599416 heartbeat IPC: 0.55830 cumulative IPC: 0.39694 (Simulation time: 0 hr 4 min 26 sec) 
Heartbeat CPU  0 instructions:  143000001 cycles:  177432447 heartbeat IPC: 0.54554 cumulative IPC: 0.39947 (Simulation time: 0 hr 4 min 28 sec) 
Heartbeat CPU  0 instructions:  144000000 cycles:  179349426 heartbeat IPC: 0.52165 cumulative IPC: 0.40161 (Simulation time: 0 hr 4 min 30 sec) 
Heartbeat CPU  0 instructions:  145000000 cycles:  181219356 heartbeat IPC: 0.53478 cumulative IPC: 0.40385 (Simulation time: 0 hr 4 min 32 sec) 
Heartbeat CPU  0 instructions:  146000002 cycles:  182981280 heartbeat IPC: 0.56756 cumulative IPC: 0.40640 (Simulation time: 0 hr 4 min 34 sec) 
Heartbeat CPU  0 instructions:  147000003 cycles:  184893852 heartbeat IPC: 0.52286 cumulative IPC: 0.40833 (Simulation time: 0 hr 4 min 36 sec) 
Heartbeat CPU  0 instructions:  148000000 cycles:  186800029 heartbeat IPC: 0.52461 cumulative IPC: 0.41022 (Simulation time: 0 hr 4 min 38 sec) 
Heartbeat CPU  0 instructions:  149000002 cycles:  188546441 heartbeat IPC: 0.57260 cumulative IPC: 0.41261 (Simulation time: 0 hr 4 min 40 sec) 
Heartbeat CPU  0 instructions:  150000003 cycles:  190436801 heartbeat IPC: 0.52900 cumulative IPC: 0.41444 (Simulation time: 0 hr 4 min 42 sec) 
Heartbeat CPU  0 instructions:  151000003 cycles:  192347703 heartbeat IPC: 0.52331 cumulative IPC: 0.41613 (Simulation time: 0 hr 4 min 45 sec) 
Heartbeat CPU  0 instructions:  152000000 cycles:  194168950 heartbeat IPC: 0.54907 cumulative IPC: 0.41808 (Simulation time: 0 hr 4 min 47 sec) 
Heartbeat CPU  0 instructions:  153000003 cycles:  207029001 heartbeat IPC: 0.07776 cumulative IPC: 0.38619 (Simulation time: 0 hr 4 min 49 sec) 
Heartbeat CPU  0 instructions:  154000000 cycles:  212000443 heartbeat IPC: 0.20115 cumulative IPC: 0.37972 (Simulation time: 0 hr 4 min 51 sec) 
Heartbeat CPU  0 instructions:  155000000 cycles:  213871190 heartbeat IPC: 0.53455 cumulative IPC: 0.38173 (Simulation time: 0 hr 4 min 53 sec) 
Heartbeat CPU  0 instructions:  156000000 cycles:  215630802 heartbeat IPC: 0.56831 cumulative IPC: 0.38398 (Simulation time: 0 hr 4 min 55 sec) 
Heartbeat CPU  0 instructions:  157000001 cycles:  217543521 heartbeat IPC: 0.52282 cumulative IPC: 0.38578 (Simulation time: 0 hr 4 min 57 sec) 
Heartbeat CPU  0 instructions:  158000001 cycles:  219452328 heartbeat IPC: 0.52389 cumulative IPC: 0.38754 (Simulation time: 0 hr 4 min 59 sec) 
Heartbeat CPU  0 instructions:  159000000 cycles:  221197456 heartbeat IPC: 0.57302 cumulative IPC: 0.38968 (Simulation time: 0 hr 5 min 1 sec) 
Heartbeat CPU  0 instructions:  160000000 cycles:  223091573 heartbeat IPC: 0.52795 cumulative IPC: 0.39139 (Simulation time: 0 hr 5 min 4 sec) 
Heartbeat CPU  0 instructions:  161000003 cycles:  225008857 heartbeat IPC: 0.52157 cumulative IPC: 0.39300 (Simulation time: 0 hr 5 min 6 sec) 
Heartbeat CPU  0 instructions:  162000000 cycles:  226818891 heartbeat IPC: 0.55247 cumulative IPC: 0.39483 (Simulation time: 0 hr 5 min 8 sec) 
Heartbeat CPU  0 instructions:  163000003 cycles:  228637600 heartbeat IPC: 0.54984 cumulative IPC: 0.39661 (Simulation time: 0 hr 5 min 10 sec) 
Heartbeat CPU  0 instructions:  164000000 cycles:  230550156 heartbeat IPC: 0.52286 cumulative IPC: 0.39811 (Simulation time: 0 hr 5 min 12 sec) 
Heartbeat CPU  0 instructions:  165000000 cycles:  232445550 heartbeat IPC: 0.52759 cumulative IPC: 0.39962 (Simulation time: 0 hr 5 min 14 sec) 
Heartbeat CPU  0 instructions:  166000001 cycles:  234187885 heartbeat IPC: 0.57394 cumulative IPC: 0.40147 (Simulation time: 0 hr 5 min 16 sec) 
Heartbeat CPU  0 instructions:  167000000 cycles:  236097423 heartbeat IPC: 0.52369 cumulative IPC: 0.40287 (Simulation time: 0 hr 5 min 18 sec) 
Heartbeat CPU  0 instructions:  168000000 cycles:  238008835 heartbeat IPC: 0.52317 cumulative IPC: 0.40424 (Simulation time: 0 hr 5 min 20 sec) 
Heartbeat CPU  0 instructions:  169000001 cycles:  239762964 heartbeat IPC: 0.57008 cumulative IPC: 0.40595 (Simulation time: 0 hr 5 min 22 sec) 
Heartbeat CPU  0 instructions:  170000002 cycles:  241637677 heartbeat IPC: 0.53342 cumulative IPC: 0.40734 (Simulation time: 0 hr 5 min 24 sec) 
Heartbeat CPU  0 instructions:  171000001 cycles:  243556000 heartbeat IPC: 0.52129 cumulative IPC: 0.40860 (Simulation time: 0 hr 5 min 26 sec) 
Heartbeat CPU  0 instructions:  172000000 cycles:  245384397 heartbeat IPC: 0.54693 cumulative IPC: 0.41004 (Simulation time: 0 hr 5 min 28 sec) 
Heartbeat CPU  0 instructions:  173000000 cycles:  247184988 heartbeat IPC: 0.55537 cumulative IPC: 0.41151 (Simulation time: 0 hr 5 min 30 sec) 
Heartbeat CPU  0 instructions:  174000003 cycles:  249101282 heartbeat IPC: 0.52184 cumulative IPC: 0.41269 (Simulation time: 0 hr 5 min 32 sec) 
Heartbeat CPU  0 instructions:  175000000 cycles:  256304912 heartbeat IPC: 0.13882 cumulative IPC: 0.40211 (Simulation time: 0 hr 5 min 35 sec) 
Heartbeat CPU  0 instructions:  176000000 cycles:  266629225 heartbeat IPC: 0.09686 cumulative IPC: 0.38610 (Simulation time: 0 hr 5 min 37 sec) 
Heartbeat CPU  0 instructions:  177000001 cycles:  268611162 heartbeat IPC: 0.50456 cumulative IPC: 0.38728 (Simulation time: 0 hr 5 min 39 sec) 
Heartbeat CPU  0 instructions:  178000003 cycles:  270676153 heartbeat IPC: 0.48426 cumulative IPC: 0.38828 (Simulation time: 0 hr 5 min 41 sec) 
Heartbeat CPU  0 instructions:  179000002 cycles:  272599496 heartbeat IPC: 0.51993 cumulative IPC: 0.38953 (Simulation time: 0 hr 5 min 43 sec) 
Heartbeat CPU  0 instructions:  180000000 cycles:  274502192 heartbeat IPC: 0.52557 cumulative IPC: 0.39079 (Simulation time: 0 hr 5 min 45 sec) 
Heartbeat CPU  0 instructions:  181000003 cycles:  276433686 heartbeat IPC: 0.51774 cumulative IPC: 0.39198 (Simulation time: 0 hr 5 min 47 sec) 
Heartbeat CPU  0 instructions:  182000003 cycles:  278279449 heartbeat IPC: 0.54178 cumulative IPC: 0.39331 (Simulation time: 0 hr 5 min 49 sec) 
Heartbeat CPU  0 instructions:  183000000 cycles:  280108578 heartbeat IPC: 0.54671 cumulative IPC: 0.39464 (Simulation time: 0 hr 5 min 51 sec) 
Heartbeat CPU  0 instructions:  184000000 cycles:  282037349 heartbeat IPC: 0.51846 cumulative IPC: 0.39577 (Simulation time: 0 hr 5 min 53 sec) 
Heartbeat CPU  0 instructions:  185000002 cycles:  283955023 heartbeat IPC: 0.52147 cumulative IPC: 0.39689 (Simulation time: 0 hr 5 min 55 sec) 
Heartbeat CPU  0 instructions:  186000001 cycles:  285732300 heartbeat IPC: 0.56266 cumulative IPC: 0.39826 (Simulation time: 0 hr 5 min 58 sec) 
Heartbeat CPU  0 instructions:  187000000 cycles:  287649116 heartbeat IPC: 0.52170 cumulative IPC: 0.39934 (Simulation time: 0 hr 6 min 0 sec) 
Heartbeat CPU  0 instructions:  188000000 cycles:  289577971 heartbeat IPC: 0.51844 cumulative IPC: 0.40039 (Simulation time: 0 hr 6 min 2 sec) 
Heartbeat CPU  0 instructions:  189000000 cycles:  291366730 heartbeat IPC: 0.55905 cumulative IPC: 0.40167 (Simulation time: 0 hr 6 min 4 sec) 
Heartbeat CPU  0 instructions:  190000000 cycles:  293252794 heartbeat IPC: 0.53020 cumulative IPC: 0.40275 (Simulation time: 0 hr 6 min 6 sec) 
Heartbeat CPU  0 instructions:  191000000 cycles:  295183756 heartbeat IPC: 0.51788 cumulative IPC: 0.40374 (Simulation time: 0 hr 6 min 8 sec) 
Heartbeat CPU  0 instructions:  192000000 cycles:  297044063 heartbeat IPC: 0.53755 cumulative IPC: 0.40484 (Simulation time: 0 hr 6 min 10 sec) 
Heartbeat CPU  0 instructions:  193000001 cycles:  298857806 heartbeat IPC: 0.55135 cumulative IPC: 0.40600 (Simulation time: 0 hr 6 min 12 sec) 
Heartbeat CPU  0 instructions:  194000000 cycles:  300789512 heartbeat IPC: 0.51768 cumulative IPC: 0.40693 (Simulation time: 0 hr 6 min 14 sec) 
Heartbeat CPU  0 instructions:  195000002 cycles:  302706536 heartbeat IPC: 0.52164 cumulative IPC: 0.40787 (Simulation time: 0 hr 6 min 16 sec) 
Heartbeat CPU  0 instructions:  196000000 cycles:  304479124 heartbeat IPC: 0.56415 cumulative IPC: 0.40905 (Simulation time: 0 hr 6 min 18 sec) 
Heartbeat CPU  0 instructions:  197000000 cycles:  306506440 heartbeat IPC: 0.49326 cumulative IPC: 0.40977 (Simulation time: 0 hr 6 min 20 sec) 
Heartbeat CPU  0 instructions:  198000003 cycles:  320862878 heartbeat IPC: 0.06966 cumulative IPC: 0.39033 (Simulation time: 0 hr 6 min 23 sec) 
Heartbeat CPU  0 instructions:  199000001 cycles:  323991765 heartbeat IPC: 0.31960 cumulative IPC: 0.38946 (Simulation time: 0 hr 6 min 25 sec) 
Heartbeat CPU  0 instructions:  200000000 cycles:  325881504 heartbeat IPC: 0.52917 cumulative IPC: 0.39049 (Simulation time: 0 hr 6 min 27 sec) 
Finished CPU 0 instructions: 100000000 cycles: 256090517 cumulative IPC: 0.39049 (Simulation time: 0 hr 6 min 27 sec) 

ChampSim completed all CPUs

[ROI Statistics]
Core_0_instructions 100000000
Core_0_cycles 256090517
Core_0_IPC 0.39049

Core_0_branch_prediction_accuracy 99.16976
Core_0_branch_MPKI 0.01138
Core_0_average_ROB_occupancy_at_mispredict 253.39016

Core_0_L1D_total_access 50830602
Core_0_L1D_total_hit 50007908
Core_0_L1D_total_miss 822694
Core_0_L1D_loads 34151482
Core_0_L1D_load_hit 33493029
Core_0_L1D_load_miss 658453
Core_0_L1D_RFOs 16679120
Core_0_L1D_RFO_hit 16514879
Core_0_L1D_RFO_miss 164241
Core_0_L1D_prefetches 0
Core_0_L1D_prefetch_hit 0
Core_0_L1D_prefetch_miss 0
Core_0_L1D_writebacks 0
Core_0_L1D_writeback_hit 0
Core_0_L1D_writeback_miss 0
Core_0_L1D_prefetch_requested 0
Core_0_L1D_prefetch_issued 0
Core_0_L1D_prefetch_useful 0
Core_0_L1D_prefetch_useless 0
Core_0_L1D_prefetch_late 0
Core_0_L1D_average_miss_latency 109.27454

Core_0_L1I_total_access 26633361
Core_0_L1I_total_hit 26633361
Core_0_L1I_total_miss 0
Core_0_L1I_loads 26633361
Core_0_L1I_load_hit 26633361
Core_0_L1I_load_miss 0
Core_0_L1I_RFOs 0
Core_0_L1I_RFO_hit 0
Core_0_L1I_RFO_miss 0
Core_0_L1I_prefetches 0
Core_0_L1I_prefetch_hit 0
Core_0_L1I_prefetch_miss 0
Core_0_L1I_writebacks 0
Core_0_L1I_writeback_hit 0
Core_0_L1I_writeback_miss 0
Core_0_L1I_prefetch_requested 0
Core_0_L1I_prefetch_issued 0
Core_0_L1I_prefetch_useful 0
Core_0_L1I_prefetch_useless 0
Core_0_L1I_prefetch_late 0
Core_0_L1I_average_miss_latency -nan

Core_0_L2C_total_access 1641432
Core_0_L2C_total_hit 1098414
Core_0_L2C_total_miss 543018
Core_0_L2C_loads 658453
Core_0_L2C_load_hit 651992
Core_0_L2C_load_miss 6461
Core_0_L2C_RFOs 164241
Core_0_L2C_RFO_hit 85
Core_0_L2C_RFO_miss 164156
Core_0_L2C_prefetches 647598
Core_0_L2C_prefetch_hit 275348
Core_0_L2C_prefetch_miss 372250
Core_0_L2C_writebacks 171140
Core_0_L2C_writeback_hit 170989
Core_0_L2C_writeback_miss 151
Core_0_L2C_prefetch_requested 1299042
Core_0_L2C_prefetch_issued 1277827
Core_0_L2C_prefetch_useful 724232
Core_0_L2C_prefetch_useless 395
Core_0_L2C_prefetch_late 97
Core_0_L2C_average_miss_latency 155.18174

Core_0_LLC_total_access 1070550
Core_0_LLC_total_hit 527272
Core_0_LLC_total_miss 543278
Core_0_LLC_loads 6373
Core_0_LLC_load_hit 1
Core_0_LLC_load_miss 6372
Core_0_LLC_RFOs 164156
Core_0_LLC_RFO_hit 23
Core_0_LLC_RFO_miss 164133
Core_0_LLC_prefetches 736214
Core_0_LLC_prefetch_hit 363618
Core_0_LLC_prefetch_miss 372596
Core_0_LLC_writebacks 163807
Core_0_LLC_writeback_hit 163630
Core_0_LLC_writeback_miss 177
Core_0_LLC_prefetch_requested 732503
Core_0_LLC_prefetch_issued 721048
Core_0_LLC_prefetch_useful 76
Core_0_LLC_prefetch_useless 706826
Core_0_LLC_prefetch_late 0
Core_0_LLC_average_miss_latency 240.14065

Core_0_major_page_fault 0
Core_0_minor_page_fault 8761

CPU 0 L2C next line prefetcher final stats
LLC Next Line Prefetcher Final Stats: none
Channel_0_RQ_row_buffer_hit 150927
Channel_0_RQ_row_buffer_miss 392174
Channel_0_WQ_row_buffer_hit 21980
Channel_0_WQ_row_buffer_miss 133565
Channel_0_WQ_full 0
Channel_0_dbus_congested 163118

avg_congested_cycle 9
