*************************************************
   ChampSim Multicore Out-of-Order Simulator
   Last compiled: Dec 22 2023 19:04:23
*************************************************

trace_0 ./test_trace/436.cactusADM-1804B.champsimtrace.xz
CPU 0 L2C next line prefetcher
Initialize DRRIP state
Assign rand_sets[0]: 454  LLC: 2048
rand_sets[0]: 454
Assign rand_sets[1]: 1662  LLC: 2048
rand_sets[1]: 1662
Assign rand_sets[2]: 1921  LLC: 2048
rand_sets[2]: 1921
Assign rand_sets[3]: 1131  LLC: 2048
rand_sets[3]: 1131
Assign rand_sets[4]: 331  LLC: 2048
rand_sets[4]: 331
Assign rand_sets[5]: 1531  LLC: 2048
rand_sets[5]: 1531
Assign rand_sets[6]: 482  LLC: 2048
rand_sets[6]: 482
Assign rand_sets[7]: 1275  LLC: 2048
rand_sets[7]: 1275
Assign rand_sets[8]: 1876  LLC: 2048
rand_sets[8]: 1876
Assign rand_sets[9]: 2038  LLC: 2048
rand_sets[9]: 2038
Assign rand_sets[10]: 701  LLC: 2048
rand_sets[10]: 701
Assign rand_sets[11]: 479  LLC: 2048
rand_sets[11]: 479
Assign rand_sets[12]: 892  LLC: 2048
rand_sets[12]: 892
Assign rand_sets[13]: 1820  LLC: 2048
rand_sets[13]: 1820
Assign rand_sets[14]: 1505  LLC: 2048
rand_sets[14]: 1505
Assign rand_sets[15]: 1159  LLC: 2048
rand_sets[15]: 1159
Assign rand_sets[16]: 513  LLC: 2048
rand_sets[16]: 513
Assign rand_sets[17]: 703  LLC: 2048
rand_sets[17]: 703
Assign rand_sets[18]: 561  LLC: 2048
rand_sets[18]: 561
Assign rand_sets[19]: 990  LLC: 2048
rand_sets[19]: 990
Assign rand_sets[20]: 342  LLC: 2048
rand_sets[20]: 342
Assign rand_sets[21]: 882  LLC: 2048
rand_sets[21]: 882
Assign rand_sets[22]: 15  LLC: 2048
rand_sets[22]: 15
Assign rand_sets[23]: 71  LLC: 2048
rand_sets[23]: 71
Assign rand_sets[24]: 1127  LLC: 2048
rand_sets[24]: 1127
Assign rand_sets[25]: 1382  LLC: 2048
rand_sets[25]: 1382
Assign rand_sets[26]: 647  LLC: 2048
rand_sets[26]: 647
Assign rand_sets[27]: 857  LLC: 2048
rand_sets[27]: 857
Assign rand_sets[28]: 1450  LLC: 2048
rand_sets[28]: 1450
Assign rand_sets[29]: 1160  LLC: 2048
rand_sets[29]: 1160
Assign rand_sets[30]: 1852  LLC: 2048
rand_sets[30]: 1852
Assign rand_sets[31]: 1881  LLC: 2048
rand_sets[31]: 1881
Assign rand_sets[32]: 1770  LLC: 2048
rand_sets[32]: 1770
Assign rand_sets[33]: 1622  LLC: 2048
rand_sets[33]: 1622
Assign rand_sets[34]: 275  LLC: 2048
rand_sets[34]: 275
Assign rand_sets[35]: 635  LLC: 2048
rand_sets[35]: 635
Assign rand_sets[36]: 466  LLC: 2048
rand_sets[36]: 466
Assign rand_sets[37]: 1413  LLC: 2048
rand_sets[37]: 1413
Assign rand_sets[38]: 417  LLC: 2048
rand_sets[38]: 417
Assign rand_sets[39]: 472  LLC: 2048
rand_sets[39]: 472
Assign rand_sets[40]: 1340  LLC: 2048
rand_sets[40]: 1340
Assign rand_sets[41]: 852  LLC: 2048
rand_sets[41]: 852
Assign rand_sets[42]: 1365  LLC: 2048
rand_sets[42]: 1365
Assign rand_sets[43]: 47  LLC: 2048
rand_sets[43]: 47
Assign rand_sets[44]: 823  LLC: 2048
rand_sets[44]: 823
Assign rand_sets[45]: 686  LLC: 2048
rand_sets[45]: 686
Assign rand_sets[46]: 1637  LLC: 2048
rand_sets[46]: 1637
Assign rand_sets[47]: 1115  LLC: 2048
rand_sets[47]: 1115
Assign rand_sets[48]: 986  LLC: 2048
rand_sets[48]: 986
Assign rand_sets[49]: 258  LLC: 2048
rand_sets[49]: 258
Assign rand_sets[50]: 633  LLC: 2048
rand_sets[50]: 633
Assign rand_sets[51]: 920  LLC: 2048
rand_sets[51]: 920
Assign rand_sets[52]: 204  LLC: 2048
rand_sets[52]: 204
Assign rand_sets[53]: 227  LLC: 2048
rand_sets[53]: 227
Assign rand_sets[54]: 1818  LLC: 2048
rand_sets[54]: 1818
Assign rand_sets[55]: 886  LLC: 2048
rand_sets[55]: 886
Assign rand_sets[56]: 1422  LLC: 2048
rand_sets[56]: 1422
Assign rand_sets[57]: 607  LLC: 2048
rand_sets[57]: 607
Assign rand_sets[58]: 217  LLC: 2048
rand_sets[58]: 217
Assign rand_sets[59]: 1945  LLC: 2048
rand_sets[59]: 1945
Assign rand_sets[60]: 143  LLC: 2048
rand_sets[60]: 143
Assign rand_sets[61]: 1311  LLC: 2048
rand_sets[61]: 1311
Assign rand_sets[62]: 319  LLC: 2048
rand_sets[62]: 319
Assign rand_sets[63]: 1846  LLC: 2048
rand_sets[63]: 1846
LLC Next Line Prefetcher
warmup_instructions 100000000
simulation_instructions 100000000
champsim_seed 271

num_cpus 1
cpu_freq 4000
dram_io_freq 2400
page_size 4096
block_size 64
max_read_per_cycle 8
max_fill_per_cycle 1
dram_channels 1
dram_ranks 1
dram_banks 8
dram_rows 65536
dram_columns 128
dram_row_size 8
dram_size 4096
dram_pages 1048576

fetch_width 6
decode_width 6
exec_width 4
lq_width 2
sq_width 2
retire_width 4
scheduler_size 128
branch_mispredict_penalty 20
rob_size 256
lq_size 72
sq_size 56
num_instr_destinations_sparc 4
num_instr_destinations 2
num_instr_sources 4

itlb_set 16
itlb_way 8
itlb_rq_size 16
itlb_wq_size 16
itlb_pq_size 0
itlb_mshr_size 8
itlb_latency 1

dtlb_set 16
dtlb_way 4
dtlb_rq_size 16
dtlb_wq_size 16
dtlb_pq_size 0
dtlb_mshr_size 8
dtlb_latency 1

stlb_set 128
stlb_way 12
stlb_rq_size 32
stlb_wq_size 32
stlb_pq_size 0
stlb_mshr_size 16
stlb_latency 8

l1i_size 32
l1i_set 64
l1i_way 8
l1i_rq_size 64
l1i_wq_size 64
l1i_pq_size 8
l1i_mshr_size 8
l1i_latency 1

l1d_size 32
l1d_set 64
l1d_way 8
l1d_rq_size 64
l1d_wq_size 64
l1d_pq_size 8
l1d_mshr_size 16
l1d_latency 4

l2c_size 512
l2c_set 1024
l2c_way 8
l2c_rq_size 32
l2c_wq_size 32
l2c_pq_size 16
l2c_mshr_size 32
l2c_latency 10

llc_size 2048
llc_set 2048
llc_way 16
llc_rq_size 32
llc_wq_size 32
llc_pq_size 32
llc_mshr_size 64
llc_latency 20

dram_channel_width 8
dram_wq_size 64
dram_rq_size 64
tRP 15
tRCD 15
tCAS 12.5
dram_dbus_turn_around_time 30
dram_write_high_wm 56
dram_write_low_wm 48
min_dram_writes_per_switch 16
dram_mtps 2400
dram_dbus_return_time 13


Heartbeat CPU  0 instructions:    1000000 cycles:     702356 heartbeat IPC: 1.42378 cumulative IPC: 1.42378 (Simulation time: 0 hr 0 min 2 sec) 
Heartbeat CPU  0 instructions:    2000000 cycles:    1404559 heartbeat IPC: 1.42409 cumulative IPC: 1.42393 (Simulation time: 0 hr 0 min 4 sec) 
Heartbeat CPU  0 instructions:    3000000 cycles:    2106853 heartbeat IPC: 1.42391 cumulative IPC: 1.42392 (Simulation time: 0 hr 0 min 6 sec) 
Heartbeat CPU  0 instructions:    4000000 cycles:    2809168 heartbeat IPC: 1.42386 cumulative IPC: 1.42391 (Simulation time: 0 hr 0 min 7 sec) 
Heartbeat CPU  0 instructions:    5000000 cycles:    3511345 heartbeat IPC: 1.42414 cumulative IPC: 1.42396 (Simulation time: 0 hr 0 min 9 sec) 
Heartbeat CPU  0 instructions:    6000000 cycles:    4213664 heartbeat IPC: 1.42385 cumulative IPC: 1.42394 (Simulation time: 0 hr 0 min 11 sec) 
Heartbeat CPU  0 instructions:    7000001 cycles:    4916048 heartbeat IPC: 1.42372 cumulative IPC: 1.42391 (Simulation time: 0 hr 0 min 13 sec) 
Heartbeat CPU  0 instructions:    8000000 cycles:    5618161 heartbeat IPC: 1.42427 cumulative IPC: 1.42395 (Simulation time: 0 hr 0 min 14 sec) 
Heartbeat CPU  0 instructions:    9000001 cycles:    6320630 heartbeat IPC: 1.42355 cumulative IPC: 1.42391 (Simulation time: 0 hr 0 min 16 sec) 
Heartbeat CPU  0 instructions:   10000000 cycles:    7022803 heartbeat IPC: 1.42415 cumulative IPC: 1.42393 (Simulation time: 0 hr 0 min 18 sec) 
Heartbeat CPU  0 instructions:   11000002 cycles:    7724985 heartbeat IPC: 1.42414 cumulative IPC: 1.42395 (Simulation time: 0 hr 0 min 20 sec) 
Heartbeat CPU  0 instructions:   12000000 cycles:    8427111 heartbeat IPC: 1.42424 cumulative IPC: 1.42398 (Simulation time: 0 hr 0 min 21 sec) 
Heartbeat CPU  0 instructions:   13000000 cycles:    9129668 heartbeat IPC: 1.42337 cumulative IPC: 1.42393 (Simulation time: 0 hr 0 min 23 sec) 
Heartbeat CPU  0 instructions:   14000002 cycles:    9831915 heartbeat IPC: 1.42400 cumulative IPC: 1.42393 (Simulation time: 0 hr 0 min 25 sec) 
Heartbeat CPU  0 instructions:   15000002 cycles:   10533819 heartbeat IPC: 1.42470 cumulative IPC: 1.42399 (Simulation time: 0 hr 0 min 27 sec) 
Heartbeat CPU  0 instructions:   16000000 cycles:   11236339 heartbeat IPC: 1.42344 cumulative IPC: 1.42395 (Simulation time: 0 hr 0 min 28 sec) 
Heartbeat CPU  0 instructions:   17000000 cycles:   11938860 heartbeat IPC: 1.42344 cumulative IPC: 1.42392 (Simulation time: 0 hr 0 min 30 sec) 
Heartbeat CPU  0 instructions:   18000001 cycles:   12599105 heartbeat IPC: 1.51459 cumulative IPC: 1.42867 (Simulation time: 0 hr 0 min 32 sec) 
Heartbeat CPU  0 instructions:   19000000 cycles:   13233110 heartbeat IPC: 1.57727 cumulative IPC: 1.43579 (Simulation time: 0 hr 0 min 34 sec) 
Heartbeat CPU  0 instructions:   20000000 cycles:   13935614 heartbeat IPC: 1.42348 cumulative IPC: 1.43517 (Simulation time: 0 hr 0 min 35 sec) 
Heartbeat CPU  0 instructions:   21000000 cycles:   14637973 heartbeat IPC: 1.42377 cumulative IPC: 1.43462 (Simulation time: 0 hr 0 min 37 sec) 
Heartbeat CPU  0 instructions:   22000002 cycles:   15340268 heartbeat IPC: 1.42391 cumulative IPC: 1.43413 (Simulation time: 0 hr 0 min 39 sec) 
Heartbeat CPU  0 instructions:   23000001 cycles:   16042633 heartbeat IPC: 1.42376 cumulative IPC: 1.43368 (Simulation time: 0 hr 0 min 40 sec) 
Heartbeat CPU  0 instructions:   24000000 cycles:   16744732 heartbeat IPC: 1.42430 cumulative IPC: 1.43329 (Simulation time: 0 hr 0 min 42 sec) 
Heartbeat CPU  0 instructions:   25000001 cycles:   17447041 heartbeat IPC: 1.42388 cumulative IPC: 1.43291 (Simulation time: 0 hr 0 min 44 sec) 
Heartbeat CPU  0 instructions:   26000003 cycles:   18149636 heartbeat IPC: 1.42330 cumulative IPC: 1.43254 (Simulation time: 0 hr 0 min 46 sec) 
Heartbeat CPU  0 instructions:   27000003 cycles:   18851821 heartbeat IPC: 1.42413 cumulative IPC: 1.43222 (Simulation time: 0 hr 0 min 48 sec) 
Heartbeat CPU  0 instructions:   28000000 cycles:   19553943 heartbeat IPC: 1.42425 cumulative IPC: 1.43194 (Simulation time: 0 hr 0 min 49 sec) 
Heartbeat CPU  0 instructions:   29000000 cycles:   20256376 heartbeat IPC: 1.42362 cumulative IPC: 1.43165 (Simulation time: 0 hr 0 min 51 sec) 
Heartbeat CPU  0 instructions:   30000003 cycles:   20958725 heartbeat IPC: 1.42380 cumulative IPC: 1.43138 (Simulation time: 0 hr 0 min 53 sec) 
Heartbeat CPU  0 instructions:   31000003 cycles:   21660670 heartbeat IPC: 1.42461 cumulative IPC: 1.43117 (Simulation time: 0 hr 0 min 55 sec) 
Heartbeat CPU  0 instructions:   32000000 cycles:   22362735 heartbeat IPC: 1.42437 cumulative IPC: 1.43095 (Simulation time: 0 hr 0 min 56 sec) 
Heartbeat CPU  0 instructions:   33000001 cycles:   23065436 heartbeat IPC: 1.42308 cumulative IPC: 1.43071 (Simulation time: 0 hr 0 min 58 sec) 
Heartbeat CPU  0 instructions:   34000000 cycles:   23767541 heartbeat IPC: 1.42429 cumulative IPC: 1.43052 (Simulation time: 0 hr 1 min 0 sec) 
Heartbeat CPU  0 instructions:   35000001 cycles:   24469778 heartbeat IPC: 1.42402 cumulative IPC: 1.43034 (Simulation time: 0 hr 1 min 2 sec) 
Heartbeat CPU  0 instructions:   36000000 cycles:   25172019 heartbeat IPC: 1.42401 cumulative IPC: 1.43016 (Simulation time: 0 hr 1 min 3 sec) 
Heartbeat CPU  0 instructions:   37000000 cycles:   25874580 heartbeat IPC: 1.42336 cumulative IPC: 1.42997 (Simulation time: 0 hr 1 min 5 sec) 
Heartbeat CPU  0 instructions:   38000001 cycles:   26576755 heartbeat IPC: 1.42415 cumulative IPC: 1.42982 (Simulation time: 0 hr 1 min 7 sec) 
Heartbeat CPU  0 instructions:   39000000 cycles:   27278998 heartbeat IPC: 1.42401 cumulative IPC: 1.42967 (Simulation time: 0 hr 1 min 9 sec) 
Heartbeat CPU  0 instructions:   40000000 cycles:   27981263 heartbeat IPC: 1.42396 cumulative IPC: 1.42953 (Simulation time: 0 hr 1 min 10 sec) 
Heartbeat CPU  0 instructions:   41000000 cycles:   28584757 heartbeat IPC: 1.65702 cumulative IPC: 1.43433 (Simulation time: 0 hr 1 min 12 sec) 
Heartbeat CPU  0 instructions:   42000002 cycles:   29275913 heartbeat IPC: 1.44685 cumulative IPC: 1.43463 (Simulation time: 0 hr 1 min 14 sec) 
Heartbeat CPU  0 instructions:   43000002 cycles:   29978298 heartbeat IPC: 1.42372 cumulative IPC: 1.43437 (Simulation time: 0 hr 1 min 15 sec) 
Heartbeat CPU  0 instructions:   44000000 cycles:   30680709 heartbeat IPC: 1.42367 cumulative IPC: 1.43413 (Simulation time: 0 hr 1 min 17 sec) 
Heartbeat CPU  0 instructions:   45000003 cycles:   31382971 heartbeat IPC: 1.42397 cumulative IPC: 1.43390 (Simulation time: 0 hr 1 min 19 sec) 
Heartbeat CPU  0 instructions:   46000003 cycles:   32085157 heartbeat IPC: 1.42412 cumulative IPC: 1.43368 (Simulation time: 0 hr 1 min 21 sec) 
Heartbeat CPU  0 instructions:   47000000 cycles:   32787321 heartbeat IPC: 1.42416 cumulative IPC: 1.43348 (Simulation time: 0 hr 1 min 22 sec) 
Heartbeat CPU  0 instructions:   48000000 cycles:   33489908 heartbeat IPC: 1.42331 cumulative IPC: 1.43327 (Simulation time: 0 hr 1 min 24 sec) 
Heartbeat CPU  0 instructions:   49000000 cycles:   34191926 heartbeat IPC: 1.42446 cumulative IPC: 1.43309 (Simulation time: 0 hr 1 min 26 sec) 
Heartbeat CPU  0 instructions:   50000000 cycles:   34894227 heartbeat IPC: 1.42389 cumulative IPC: 1.43290 (Simulation time: 0 hr 1 min 28 sec) 
Heartbeat CPU  0 instructions:   51000000 cycles:   35596717 heartbeat IPC: 1.42351 cumulative IPC: 1.43272 (Simulation time: 0 hr 1 min 29 sec) 
Heartbeat CPU  0 instructions:   52000000 cycles:   36298896 heartbeat IPC: 1.42414 cumulative IPC: 1.43255 (Simulation time: 0 hr 1 min 31 sec) 
Heartbeat CPU  0 instructions:   53000000 cycles:   37001290 heartbeat IPC: 1.42370 cumulative IPC: 1.43238 (Simulation time: 0 hr 1 min 33 sec) 
Heartbeat CPU  0 instructions:   54000001 cycles:   37703347 heartbeat IPC: 1.42439 cumulative IPC: 1.43223 (Simulation time: 0 hr 1 min 35 sec) 
Heartbeat CPU  0 instructions:   55000001 cycles:   38405616 heartbeat IPC: 1.42396 cumulative IPC: 1.43208 (Simulation time: 0 hr 1 min 37 sec) 
Heartbeat CPU  0 instructions:   56000000 cycles:   39108083 heartbeat IPC: 1.42355 cumulative IPC: 1.43193 (Simulation time: 0 hr 1 min 38 sec) 
Heartbeat CPU  0 instructions:   57000000 cycles:   39810555 heartbeat IPC: 1.42354 cumulative IPC: 1.43178 (Simulation time: 0 hr 1 min 40 sec) 
Heartbeat CPU  0 instructions:   58000003 cycles:   40512851 heartbeat IPC: 1.42391 cumulative IPC: 1.43164 (Simulation time: 0 hr 1 min 42 sec) 
Heartbeat CPU  0 instructions:   59000000 cycles:   41214981 heartbeat IPC: 1.42423 cumulative IPC: 1.43152 (Simulation time: 0 hr 1 min 44 sec) 
Heartbeat CPU  0 instructions:   60000000 cycles:   41917393 heartbeat IPC: 1.42367 cumulative IPC: 1.43139 (Simulation time: 0 hr 1 min 45 sec) 
Heartbeat CPU  0 instructions:   61000000 cycles:   42619570 heartbeat IPC: 1.42414 cumulative IPC: 1.43127 (Simulation time: 0 hr 1 min 47 sec) 
Heartbeat CPU  0 instructions:   62000002 cycles:   43321830 heartbeat IPC: 1.42398 cumulative IPC: 1.43115 (Simulation time: 0 hr 1 min 49 sec) 
Heartbeat CPU  0 instructions:   63000000 cycles:   43968159 heartbeat IPC: 1.54720 cumulative IPC: 1.43286 (Simulation time: 0 hr 1 min 51 sec) 
Heartbeat CPU  0 instructions:   64000000 cycles:   44618312 heartbeat IPC: 1.53810 cumulative IPC: 1.43439 (Simulation time: 0 hr 1 min 52 sec) 
Heartbeat CPU  0 instructions:   65000000 cycles:   45320338 heartbeat IPC: 1.42445 cumulative IPC: 1.43423 (Simulation time: 0 hr 1 min 54 sec) 
Heartbeat CPU  0 instructions:   66000001 cycles:   46022409 heartbeat IPC: 1.42436 cumulative IPC: 1.43408 (Simulation time: 0 hr 1 min 56 sec) 
Heartbeat CPU  0 instructions:   67000002 cycles:   46724512 heartbeat IPC: 1.42429 cumulative IPC: 1.43394 (Simulation time: 0 hr 1 min 58 sec) 
Heartbeat CPU  0 instructions:   68000000 cycles:   47426894 heartbeat IPC: 1.42372 cumulative IPC: 1.43379 (Simulation time: 0 hr 1 min 59 sec) 
Heartbeat CPU  0 instructions:   69000000 cycles:   48129064 heartbeat IPC: 1.42416 cumulative IPC: 1.43365 (Simulation time: 0 hr 2 min 1 sec) 
Heartbeat CPU  0 instructions:   70000002 cycles:   48831165 heartbeat IPC: 1.42430 cumulative IPC: 1.43351 (Simulation time: 0 hr 2 min 3 sec) 
Heartbeat CPU  0 instructions:   71000003 cycles:   49533786 heartbeat IPC: 1.42324 cumulative IPC: 1.43337 (Simulation time: 0 hr 2 min 5 sec) 
Heartbeat CPU  0 instructions:   72000000 cycles:   50235839 heartbeat IPC: 1.42439 cumulative IPC: 1.43324 (Simulation time: 0 hr 2 min 6 sec) 
Heartbeat CPU  0 instructions:   73000001 cycles:   50937981 heartbeat IPC: 1.42421 cumulative IPC: 1.43312 (Simulation time: 0 hr 2 min 8 sec) 
Heartbeat CPU  0 instructions:   74000003 cycles:   51640283 heartbeat IPC: 1.42389 cumulative IPC: 1.43299 (Simulation time: 0 hr 2 min 10 sec) 
Heartbeat CPU  0 instructions:   75000002 cycles:   52342944 heartbeat IPC: 1.42316 cumulative IPC: 1.43286 (Simulation time: 0 hr 2 min 12 sec) 
Heartbeat CPU  0 instructions:   76000000 cycles:   53045138 heartbeat IPC: 1.42411 cumulative IPC: 1.43274 (Simulation time: 0 hr 2 min 13 sec) 
Heartbeat CPU  0 instructions:   77000003 cycles:   53747728 heartbeat IPC: 1.42331 cumulative IPC: 1.43262 (Simulation time: 0 hr 2 min 15 sec) 
Heartbeat CPU  0 instructions:   78000001 cycles:   54450215 heartbeat IPC: 1.42351 cumulative IPC: 1.43250 (Simulation time: 0 hr 2 min 17 sec) 
Heartbeat CPU  0 instructions:   79000001 cycles:   55152135 heartbeat IPC: 1.42466 cumulative IPC: 1.43240 (Simulation time: 0 hr 2 min 19 sec) 
Heartbeat CPU  0 instructions:   80000000 cycles:   55854172 heartbeat IPC: 1.42442 cumulative IPC: 1.43230 (Simulation time: 0 hr 2 min 21 sec) 
Heartbeat CPU  0 instructions:   81000002 cycles:   56556508 heartbeat IPC: 1.42382 cumulative IPC: 1.43220 (Simulation time: 0 hr 2 min 22 sec) 
Heartbeat CPU  0 instructions:   82000003 cycles:   57258739 heartbeat IPC: 1.42403 cumulative IPC: 1.43210 (Simulation time: 0 hr 2 min 24 sec) 
Heartbeat CPU  0 instructions:   83000001 cycles:   57960978 heartbeat IPC: 1.42401 cumulative IPC: 1.43200 (Simulation time: 0 hr 2 min 26 sec) 
Heartbeat CPU  0 instructions:   84000000 cycles:   58663201 heartbeat IPC: 1.42405 cumulative IPC: 1.43190 (Simulation time: 0 hr 2 min 28 sec) 
Heartbeat CPU  0 instructions:   85000000 cycles:   59351579 heartbeat IPC: 1.45269 cumulative IPC: 1.43214 (Simulation time: 0 hr 2 min 29 sec) 
Heartbeat CPU  0 instructions:   86000002 cycles:   59959071 heartbeat IPC: 1.64612 cumulative IPC: 1.43431 (Simulation time: 0 hr 2 min 31 sec) 
Heartbeat CPU  0 instructions:   87000002 cycles:   60661513 heartbeat IPC: 1.42361 cumulative IPC: 1.43419 (Simulation time: 0 hr 2 min 33 sec) 
Heartbeat CPU  0 instructions:   88000000 cycles:   61364140 heartbeat IPC: 1.42323 cumulative IPC: 1.43406 (Simulation time: 0 hr 2 min 35 sec) 
Heartbeat CPU  0 instructions:   89000001 cycles:   62066175 heartbeat IPC: 1.42443 cumulative IPC: 1.43395 (Simulation time: 0 hr 2 min 36 sec) 
Heartbeat CPU  0 instructions:   90000003 cycles:   62768490 heartbeat IPC: 1.42387 cumulative IPC: 1.43384 (Simulation time: 0 hr 2 min 38 sec) 
Heartbeat CPU  0 instructions:   91000003 cycles:   63470902 heartbeat IPC: 1.42367 cumulative IPC: 1.43373 (Simulation time: 0 hr 2 min 40 sec) 
Heartbeat CPU  0 instructions:   92000000 cycles:   64173105 heartbeat IPC: 1.42409 cumulative IPC: 1.43362 (Simulation time: 0 hr 2 min 42 sec) 
Heartbeat CPU  0 instructions:   93000002 cycles:   64875467 heartbeat IPC: 1.42377 cumulative IPC: 1.43352 (Simulation time: 0 hr 2 min 43 sec) 
Heartbeat CPU  0 instructions:   94000002 cycles:   65577490 heartbeat IPC: 1.42445 cumulative IPC: 1.43342 (Simulation time: 0 hr 2 min 45 sec) 
Heartbeat CPU  0 instructions:   95000003 cycles:   66279646 heartbeat IPC: 1.42419 cumulative IPC: 1.43332 (Simulation time: 0 hr 2 min 47 sec) 
Heartbeat CPU  0 instructions:   96000000 cycles:   66981901 heartbeat IPC: 1.42398 cumulative IPC: 1.43322 (Simulation time: 0 hr 2 min 49 sec) 
Heartbeat CPU  0 instructions:   97000000 cycles:   67684233 heartbeat IPC: 1.42383 cumulative IPC: 1.43313 (Simulation time: 0 hr 2 min 50 sec) 
Heartbeat CPU  0 instructions:   98000002 cycles:   68386418 heartbeat IPC: 1.42413 cumulative IPC: 1.43303 (Simulation time: 0 hr 2 min 52 sec) 
Heartbeat CPU  0 instructions:   99000003 cycles:   69088631 heartbeat IPC: 1.42407 cumulative IPC: 1.43294 (Simulation time: 0 hr 2 min 54 sec) 
Heartbeat CPU  0 instructions:  100000000 cycles:   69791002 heartbeat IPC: 1.42374 cumulative IPC: 1.43285 (Simulation time: 0 hr 2 min 56 sec) 

Warmup complete CPU  0 instructions:  100000001 cycles:   69791022 (Simulation time: 0 hr 2 min 56 sec) 

Heartbeat CPU  0 instructions:  101000000 cycles:   71713729 heartbeat IPC: 0.52009 cumulative IPC: 0.52010 (Simulation time: 0 hr 2 min 58 sec) 
Heartbeat CPU  0 instructions:  102000003 cycles:   73466555 heartbeat IPC: 0.57051 cumulative IPC: 0.54414 (Simulation time: 0 hr 3 min 0 sec) 
Heartbeat CPU  0 instructions:  103000003 cycles:   75329931 heartbeat IPC: 0.53666 cumulative IPC: 0.54162 (Simulation time: 0 hr 3 min 2 sec) 
Heartbeat CPU  0 instructions:  104000000 cycles:   77241075 heartbeat IPC: 0.52325 cumulative IPC: 0.53691 (Simulation time: 0 hr 3 min 4 sec) 
Heartbeat CPU  0 instructions:  105000002 cycles:   79073969 heartbeat IPC: 0.54559 cumulative IPC: 0.53862 (Simulation time: 0 hr 3 min 6 sec) 
Heartbeat CPU  0 instructions:  106000000 cycles:   80867263 heartbeat IPC: 0.55763 cumulative IPC: 0.54170 (Simulation time: 0 hr 3 min 8 sec) 
Heartbeat CPU  0 instructions:  107000003 cycles:   82775240 heartbeat IPC: 0.52412 cumulative IPC: 0.53912 (Simulation time: 0 hr 3 min 10 sec) 
Heartbeat CPU  0 instructions:  108000000 cycles:   93549015 heartbeat IPC: 0.09282 cumulative IPC: 0.33673 (Simulation time: 0 hr 3 min 12 sec) 
Heartbeat CPU  0 instructions:  109000003 cycles:  100347164 heartbeat IPC: 0.14710 cumulative IPC: 0.29454 (Simulation time: 0 hr 3 min 15 sec) 
Heartbeat CPU  0 instructions:  110000001 cycles:  102252577 heartbeat IPC: 0.52482 cumulative IPC: 0.30806 (Simulation time: 0 hr 3 min 17 sec) 
Heartbeat CPU  0 instructions:  111000000 cycles:  104166033 heartbeat IPC: 0.52261 cumulative IPC: 0.32000 (Simulation time: 0 hr 3 min 19 sec) 
Heartbeat CPU  0 instructions:  112000000 cycles:  105929435 heartbeat IPC: 0.56709 cumulative IPC: 0.33206 (Simulation time: 0 hr 3 min 21 sec) 
Heartbeat CPU  0 instructions:  113000000 cycles:  107795159 heartbeat IPC: 0.53598 cumulative IPC: 0.34207 (Simulation time: 0 hr 3 min 23 sec) 
Heartbeat CPU  0 instructions:  114000000 cycles:  109718930 heartbeat IPC: 0.51981 cumulative IPC: 0.35063 (Simulation time: 0 hr 3 min 25 sec) 
Heartbeat CPU  0 instructions:  115000001 cycles:  111549685 heartbeat IPC: 0.54622 cumulative IPC: 0.35921 (Simulation time: 0 hr 3 min 27 sec) 
Heartbeat CPU  0 instructions:  116000000 cycles:  113341662 heartbeat IPC: 0.55804 cumulative IPC: 0.36739 (Simulation time: 0 hr 3 min 29 sec) 
Heartbeat CPU  0 instructions:  117000003 cycles:  115256190 heartbeat IPC: 0.52232 cumulative IPC: 0.37391 (Simulation time: 0 hr 3 min 32 sec) 
Heartbeat CPU  0 instructions:  118000002 cycles:  117156110 heartbeat IPC: 0.52634 cumulative IPC: 0.38003 (Simulation time: 0 hr 3 min 34 sec) 
Heartbeat CPU  0 instructions:  119000002 cycles:  118897532 heartbeat IPC: 0.57424 cumulative IPC: 0.38691 (Simulation time: 0 hr 3 min 36 sec) 
Heartbeat CPU  0 instructions:  120000000 cycles:  120799353 heartbeat IPC: 0.52581 cumulative IPC: 0.39209 (Simulation time: 0 hr 3 min 38 sec) 
Heartbeat CPU  0 instructions:  121000003 cycles:  122711341 heartbeat IPC: 0.52302 cumulative IPC: 0.39682 (Simulation time: 0 hr 3 min 40 sec) 
Heartbeat CPU  0 instructions:  122000002 cycles:  124486941 heartbeat IPC: 0.56319 cumulative IPC: 0.40222 (Simulation time: 0 hr 3 min 42 sec) 
Heartbeat CPU  0 instructions:  123000002 cycles:  126336218 heartbeat IPC: 0.54075 cumulative IPC: 0.40675 (Simulation time: 0 hr 3 min 44 sec) 
Heartbeat CPU  0 instructions:  124000000 cycles:  128252281 heartbeat IPC: 0.52190 cumulative IPC: 0.41053 (Simulation time: 0 hr 3 min 46 sec) 
Heartbeat CPU  0 instructions:  125000000 cycles:  130106792 heartbeat IPC: 0.53923 cumulative IPC: 0.41449 (Simulation time: 0 hr 3 min 48 sec) 
Heartbeat CPU  0 instructions:  126000002 cycles:  131894904 heartbeat IPC: 0.55925 cumulative IPC: 0.41865 (Simulation time: 0 hr 3 min 50 sec) 
Heartbeat CPU  0 instructions:  127000002 cycles:  133928435 heartbeat IPC: 0.49176 cumulative IPC: 0.42097 (Simulation time: 0 hr 3 min 52 sec) 
Heartbeat CPU  0 instructions:  128000000 cycles:  135833252 heartbeat IPC: 0.52498 cumulative IPC: 0.42397 (Simulation time: 0 hr 3 min 54 sec) 
Heartbeat CPU  0 instructions:  129000001 cycles:  137571780 heartbeat IPC: 0.57520 cumulative IPC: 0.42785 (Simulation time: 0 hr 3 min 56 sec) 
Heartbeat CPU  0 instructions:  130000000 cycles:  143102385 heartbeat IPC: 0.18081 cumulative IPC: 0.40921 (Simulation time: 0 hr 3 min 58 sec) 
Heartbeat CPU  0 instructions:  131000003 cycles:  155262921 heartbeat IPC: 0.08223 cumulative IPC: 0.36269 (Simulation time: 0 hr 4 min 1 sec) 
Heartbeat CPU  0 instructions:  132000000 cycles:  157040517 heartbeat IPC: 0.56256 cumulative IPC: 0.36676 (Simulation time: 0 hr 4 min 3 sec) 
Heartbeat CPU  0 instructions:  133000000 cycles:  158892131 heartbeat IPC: 0.54007 cumulative IPC: 0.37037 (Simulation time: 0 hr 4 min 5 sec) 
Heartbeat CPU  0 instructions:  134000000 cycles:  160808735 heartbeat IPC: 0.52176 cumulative IPC: 0.37355 (Simulation time: 0 hr 4 min 7 sec) 
Heartbeat CPU  0 instructions:  135000000 cycles:  162660580 heartbeat IPC: 0.54000 cumulative IPC: 0.37687 (Simulation time: 0 hr 4 min 9 sec) 
Heartbeat CPU  0 instructions:  136000000 cycles:  164437070 heartbeat IPC: 0.56291 cumulative IPC: 0.38036 (Simulation time: 0 hr 4 min 11 sec) 
Heartbeat CPU  0 instructions:  137000002 cycles:  166352598 heartbeat IPC: 0.52205 cumulative IPC: 0.38318 (Simulation time: 0 hr 4 min 13 sec) 
Heartbeat CPU  0 instructions:  138000001 cycles:  168258377 heartbeat IPC: 0.52472 cumulative IPC: 0.38591 (Simulation time: 0 hr 4 min 15 sec) 
Heartbeat CPU  0 instructions:  139000001 cycles:  169996782 heartbeat IPC: 0.57524 cumulative IPC: 0.38920 (Simulation time: 0 hr 4 min 17 sec) 
Heartbeat CPU  0 instructions:  140000000 cycles:  171901174 heartbeat IPC: 0.52510 cumulative IPC: 0.39173 (Simulation time: 0 hr 4 min 19 sec) 
Heartbeat CPU  0 instructions:  141000000 cycles:  173816786 heartbeat IPC: 0.52203 cumulative IPC: 0.39413 (Simulation time: 0 hr 4 min 21 sec) 
Heartbeat CPU  0 instructions:  142000001 cycles:  175608432 heartbeat IPC: 0.55815 cumulative IPC: 0.39691 (Simulation time: 0 hr 4 min 23 sec) 
Heartbeat CPU  0 instructions:  143000001 cycles:  177441400 heartbeat IPC: 0.54556 cumulative IPC: 0.39944 (Simulation time: 0 hr 4 min 25 sec) 
Heartbeat CPU  0 instructions:  144000000 cycles:  179358144 heartbeat IPC: 0.52172 cumulative IPC: 0.40158 (Simulation time: 0 hr 4 min 28 sec) 
Heartbeat CPU  0 instructions:  145000000 cycles:  181228253 heartbeat IPC: 0.53473 cumulative IPC: 0.40381 (Simulation time: 0 hr 4 min 30 sec) 
Heartbeat CPU  0 instructions:  146000002 cycles:  182990015 heartbeat IPC: 0.56761 cumulative IPC: 0.40636 (Simulation time: 0 hr 4 min 32 sec) 
Heartbeat CPU  0 instructions:  147000003 cycles:  184902381 heartbeat IPC: 0.52291 cumulative IPC: 0.40830 (Simulation time: 0 hr 4 min 34 sec) 
Heartbeat CPU  0 instructions:  148000000 cycles:  186808446 heartbeat IPC: 0.52464 cumulative IPC: 0.41020 (Simulation time: 0 hr 4 min 36 sec) 
Heartbeat CPU  0 instructions:  149000002 cycles:  188554361 heartbeat IPC: 0.57277 cumulative IPC: 0.41259 (Simulation time: 0 hr 4 min 38 sec) 
Heartbeat CPU  0 instructions:  150000003 cycles:  190444944 heartbeat IPC: 0.52894 cumulative IPC: 0.41441 (Simulation time: 0 hr 4 min 40 sec) 
Heartbeat CPU  0 instructions:  151000003 cycles:  192355931 heartbeat IPC: 0.52329 cumulative IPC: 0.41611 (Simulation time: 0 hr 4 min 42 sec) 
Heartbeat CPU  0 instructions:  152000000 cycles:  194177326 heartbeat IPC: 0.54903 cumulative IPC: 0.41805 (Simulation time: 0 hr 4 min 44 sec) 
Heartbeat CPU  0 instructions:  153000003 cycles:  207047923 heartbeat IPC: 0.07770 cumulative IPC: 0.38614 (Simulation time: 0 hr 4 min 46 sec) 
Heartbeat CPU  0 instructions:  154000000 cycles:  212020248 heartbeat IPC: 0.20111 cumulative IPC: 0.37967 (Simulation time: 0 hr 4 min 49 sec) 
Heartbeat CPU  0 instructions:  155000000 cycles:  213890273 heartbeat IPC: 0.53475 cumulative IPC: 0.38168 (Simulation time: 0 hr 4 min 51 sec) 
Heartbeat CPU  0 instructions:  156000000 cycles:  215648949 heartbeat IPC: 0.56861 cumulative IPC: 0.38394 (Simulation time: 0 hr 4 min 53 sec) 
Heartbeat CPU  0 instructions:  157000001 cycles:  217561189 heartbeat IPC: 0.52295 cumulative IPC: 0.38573 (Simulation time: 0 hr 4 min 55 sec) 
Heartbeat CPU  0 instructions:  158000001 cycles:  219469445 heartbeat IPC: 0.52404 cumulative IPC: 0.38750 (Simulation time: 0 hr 4 min 57 sec) 
Heartbeat CPU  0 instructions:  159000000 cycles:  221213829 heartbeat IPC: 0.57327 cumulative IPC: 0.38964 (Simulation time: 0 hr 4 min 59 sec) 
Heartbeat CPU  0 instructions:  160000000 cycles:  223106853 heartbeat IPC: 0.52826 cumulative IPC: 0.39135 (Simulation time: 0 hr 5 min 1 sec) 
Heartbeat CPU  0 instructions:  161000003 cycles:  225024296 heartbeat IPC: 0.52153 cumulative IPC: 0.39296 (Simulation time: 0 hr 5 min 3 sec) 
Heartbeat CPU  0 instructions:  162000000 cycles:  226834229 heartbeat IPC: 0.55250 cumulative IPC: 0.39480 (Simulation time: 0 hr 5 min 5 sec) 
Heartbeat CPU  0 instructions:  163000003 cycles:  228652748 heartbeat IPC: 0.54990 cumulative IPC: 0.39657 (Simulation time: 0 hr 5 min 7 sec) 
Heartbeat CPU  0 instructions:  164000000 cycles:  230565227 heartbeat IPC: 0.52288 cumulative IPC: 0.39807 (Simulation time: 0 hr 5 min 9 sec) 
Heartbeat CPU  0 instructions:  165000000 cycles:  232460673 heartbeat IPC: 0.52758 cumulative IPC: 0.39958 (Simulation time: 0 hr 5 min 11 sec) 
Heartbeat CPU  0 instructions:  166000001 cycles:  234203061 heartbeat IPC: 0.57393 cumulative IPC: 0.40143 (Simulation time: 0 hr 5 min 13 sec) 
Heartbeat CPU  0 instructions:  167000000 cycles:  236112569 heartbeat IPC: 0.52369 cumulative IPC: 0.40283 (Simulation time: 0 hr 5 min 15 sec) 
Heartbeat CPU  0 instructions:  168000000 cycles:  238023874 heartbeat IPC: 0.52320 cumulative IPC: 0.40420 (Simulation time: 0 hr 5 min 17 sec) 
Heartbeat CPU  0 instructions:  169000001 cycles:  239777688 heartbeat IPC: 0.57019 cumulative IPC: 0.40591 (Simulation time: 0 hr 5 min 19 sec) 
Heartbeat CPU  0 instructions:  170000002 cycles:  241652441 heartbeat IPC: 0.53340 cumulative IPC: 0.40730 (Simulation time: 0 hr 5 min 21 sec) 
Heartbeat CPU  0 instructions:  171000001 cycles:  243570390 heartbeat IPC: 0.52139 cumulative IPC: 0.40856 (Simulation time: 0 hr 5 min 23 sec) 
Heartbeat CPU  0 instructions:  172000000 cycles:  245398915 heartbeat IPC: 0.54689 cumulative IPC: 0.41000 (Simulation time: 0 hr 5 min 26 sec) 
Heartbeat CPU  0 instructions:  173000000 cycles:  247199441 heartbeat IPC: 0.55539 cumulative IPC: 0.41148 (Simulation time: 0 hr 5 min 28 sec) 
Heartbeat CPU  0 instructions:  174000003 cycles:  249115473 heartbeat IPC: 0.52191 cumulative IPC: 0.41266 (Simulation time: 0 hr 5 min 30 sec) 
Heartbeat CPU  0 instructions:  175000000 cycles:  256317666 heartbeat IPC: 0.13885 cumulative IPC: 0.40209 (Simulation time: 0 hr 5 min 33 sec) 
Heartbeat CPU  0 instructions:  176000000 cycles:  266657364 heartbeat IPC: 0.09671 cumulative IPC: 0.38605 (Simulation time: 0 hr 5 min 35 sec) 
Heartbeat CPU  0 instructions:  177000001 cycles:  268638665 heartbeat IPC: 0.50472 cumulative IPC: 0.38723 (Simulation time: 0 hr 5 min 37 sec) 
Heartbeat CPU  0 instructions:  178000003 cycles:  270703233 heartbeat IPC: 0.48436 cumulative IPC: 0.38823 (Simulation time: 0 hr 5 min 39 sec) 
Heartbeat CPU  0 instructions:  179000002 cycles:  272626289 heartbeat IPC: 0.52001 cumulative IPC: 0.38948 (Simulation time: 0 hr 5 min 42 sec) 
Heartbeat CPU  0 instructions:  180000000 cycles:  274528980 heartbeat IPC: 0.52557 cumulative IPC: 0.39074 (Simulation time: 0 hr 5 min 44 sec) 
Heartbeat CPU  0 instructions:  181000003 cycles:  276459930 heartbeat IPC: 0.51788 cumulative IPC: 0.39193 (Simulation time: 0 hr 5 min 46 sec) 
Heartbeat CPU  0 instructions:  182000003 cycles:  278305252 heartbeat IPC: 0.54191 cumulative IPC: 0.39326 (Simulation time: 0 hr 5 min 48 sec) 
Heartbeat CPU  0 instructions:  183000000 cycles:  280134111 heartbeat IPC: 0.54679 cumulative IPC: 0.39459 (Simulation time: 0 hr 5 min 50 sec) 
Heartbeat CPU  0 instructions:  184000000 cycles:  282062309 heartbeat IPC: 0.51862 cumulative IPC: 0.39572 (Simulation time: 0 hr 5 min 53 sec) 
Heartbeat CPU  0 instructions:  185000002 cycles:  283980296 heartbeat IPC: 0.52138 cumulative IPC: 0.39685 (Simulation time: 0 hr 5 min 55 sec) 
Heartbeat CPU  0 instructions:  186000001 cycles:  285757645 heartbeat IPC: 0.56264 cumulative IPC: 0.39821 (Simulation time: 0 hr 5 min 57 sec) 
Heartbeat CPU  0 instructions:  187000000 cycles:  287674252 heartbeat IPC: 0.52175 cumulative IPC: 0.39930 (Simulation time: 0 hr 5 min 59 sec) 
Heartbeat CPU  0 instructions:  188000000 cycles:  289603186 heartbeat IPC: 0.51842 cumulative IPC: 0.40034 (Simulation time: 0 hr 6 min 1 sec) 
Heartbeat CPU  0 instructions:  189000000 cycles:  291392020 heartbeat IPC: 0.55902 cumulative IPC: 0.40162 (Simulation time: 0 hr 6 min 3 sec) 
Heartbeat CPU  0 instructions:  190000000 cycles:  293278299 heartbeat IPC: 0.53014 cumulative IPC: 0.40271 (Simulation time: 0 hr 6 min 5 sec) 
Heartbeat CPU  0 instructions:  191000000 cycles:  295209229 heartbeat IPC: 0.51789 cumulative IPC: 0.40369 (Simulation time: 0 hr 6 min 8 sec) 
Heartbeat CPU  0 instructions:  192000000 cycles:  297069752 heartbeat IPC: 0.53748 cumulative IPC: 0.40479 (Simulation time: 0 hr 6 min 10 sec) 
Heartbeat CPU  0 instructions:  193000001 cycles:  298883620 heartbeat IPC: 0.55131 cumulative IPC: 0.40595 (Simulation time: 0 hr 6 min 12 sec) 
Heartbeat CPU  0 instructions:  194000000 cycles:  300814920 heartbeat IPC: 0.51779 cumulative IPC: 0.40688 (Simulation time: 0 hr 6 min 14 sec) 
Heartbeat CPU  0 instructions:  195000002 cycles:  302732151 heartbeat IPC: 0.52159 cumulative IPC: 0.40783 (Simulation time: 0 hr 6 min 16 sec) 
Heartbeat CPU  0 instructions:  196000000 cycles:  304504649 heartbeat IPC: 0.56417 cumulative IPC: 0.40901 (Simulation time: 0 hr 6 min 18 sec) 
Heartbeat CPU  0 instructions:  197000000 cycles:  306532698 heartbeat IPC: 0.49308 cumulative IPC: 0.40973 (Simulation time: 0 hr 6 min 20 sec) 
Heartbeat CPU  0 instructions:  198000003 cycles:  320898519 heartbeat IPC: 0.06961 cumulative IPC: 0.39027 (Simulation time: 0 hr 6 min 23 sec) 
Heartbeat CPU  0 instructions:  199000001 cycles:  324031254 heartbeat IPC: 0.31921 cumulative IPC: 0.38940 (Simulation time: 0 hr 6 min 25 sec) 
Heartbeat CPU  0 instructions:  200000000 cycles:  325920968 heartbeat IPC: 0.52918 cumulative IPC: 0.39043 (Simulation time: 0 hr 6 min 27 sec) 
Finished CPU 0 instructions: 100000000 cycles: 256129974 cumulative IPC: 0.39043 (Simulation time: 0 hr 6 min 27 sec) 

ChampSim completed all CPUs

[ROI Statistics]
Core_0_instructions 100000000
Core_0_cycles 256129974
Core_0_IPC 0.39043

Core_0_branch_prediction_accuracy 99.16976
Core_0_branch_MPKI 0.01138
Core_0_average_ROB_occupancy_at_mispredict 253.39016

Core_0_L1D_total_access 50824394
Core_0_L1D_total_hit 50001707
Core_0_L1D_total_miss 822687
Core_0_L1D_loads 34151381
Core_0_L1D_load_hit 33492935
Core_0_L1D_load_miss 658446
Core_0_L1D_RFOs 16673013
Core_0_L1D_RFO_hit 16508772
Core_0_L1D_RFO_miss 164241
Core_0_L1D_prefetches 0
Core_0_L1D_prefetch_hit 0
Core_0_L1D_prefetch_miss 0
Core_0_L1D_writebacks 0
Core_0_L1D_writeback_hit 0
Core_0_L1D_writeback_miss 0
Core_0_L1D_prefetch_requested 0
Core_0_L1D_prefetch_issued 0
Core_0_L1D_prefetch_useful 0
Core_0_L1D_prefetch_useless 0
Core_0_L1D_prefetch_late 0
Core_0_L1D_average_miss_latency 111.01015

Core_0_L1I_total_access 26633350
Core_0_L1I_total_hit 26633350
Core_0_L1I_total_miss 0
Core_0_L1I_loads 26633350
Core_0_L1I_load_hit 26633350
Core_0_L1I_load_miss 0
Core_0_L1I_RFOs 0
Core_0_L1I_RFO_hit 0
Core_0_L1I_RFO_miss 0
Core_0_L1I_prefetches 0
Core_0_L1I_prefetch_hit 0
Core_0_L1I_prefetch_miss 0
Core_0_L1I_writebacks 0
Core_0_L1I_writeback_hit 0
Core_0_L1I_writeback_miss 0
Core_0_L1I_prefetch_requested 0
Core_0_L1I_prefetch_issued 0
Core_0_L1I_prefetch_useful 0
Core_0_L1I_prefetch_useless 0
Core_0_L1I_prefetch_late 0
Core_0_L1I_average_miss_latency -nan

Core_0_L2C_total_access 1641382
Core_0_L2C_total_hit 1098364
Core_0_L2C_total_miss 543018
Core_0_L2C_loads 658446
Core_0_L2C_load_hit 651947
Core_0_L2C_load_miss 6499
Core_0_L2C_RFOs 164241
Core_0_L2C_RFO_hit 85
Core_0_L2C_RFO_miss 164156
Core_0_L2C_prefetches 647558
Core_0_L2C_prefetch_hit 275346
Core_0_L2C_prefetch_miss 372212
Core_0_L2C_writebacks 171137
Core_0_L2C_writeback_hit 170986
Core_0_L2C_writeback_miss 151
Core_0_L2C_prefetch_requested 1299035
Core_0_L2C_prefetch_issued 1277825
Core_0_L2C_prefetch_useful 724194
Core_0_L2C_prefetch_useless 397
Core_0_L2C_prefetch_late 135
Core_0_L2C_average_miss_latency 158.50951

Core_0_LLC_total_access 1069661
Core_0_LLC_total_hit 511559
Core_0_LLC_total_miss 558102
Core_0_LLC_loads 6373
Core_0_LLC_load_hit 104
Core_0_LLC_load_miss 6269
Core_0_LLC_RFOs 164156
Core_0_LLC_RFO_hit 1242
Core_0_LLC_RFO_miss 162914
Core_0_LLC_prefetches 735235
Core_0_LLC_prefetch_hit 362663
Core_0_LLC_prefetch_miss 372572
Core_0_LLC_writebacks 163897
Core_0_LLC_writeback_hit 147550
Core_0_LLC_writeback_miss 16347
Core_0_LLC_prefetch_requested 732001
Core_0_LLC_prefetch_issued 720563
Core_0_LLC_prefetch_useful 2008
Core_0_LLC_prefetch_useless 699951
Core_0_LLC_prefetch_late 0
Core_0_LLC_average_miss_latency 238.00343

Core_0_major_page_fault 0
Core_0_minor_page_fault 8761

CPU 0 L2C next line prefetcher final stats
LLC Next Line Prefetcher Final Stats: none
Channel_0_RQ_row_buffer_hit 153650
Channel_0_RQ_row_buffer_miss 388105
Channel_0_WQ_row_buffer_hit 18364
Channel_0_WQ_row_buffer_miss 140069
Channel_0_WQ_full 0
Channel_0_dbus_congested 164896

avg_congested_cycle 9
