*************************************************
   ChampSim Multicore Out-of-Order Simulator
   Last compiled: Dec 22 2023 21:35:41
*************************************************

trace_0 ./test_trace/436.cactusADM-1804B.champsimtrace.xz
CPU 0 L2C next line prefetcher
Initialize SHIP state
warmup_instructions 100000000
simulation_instructions 100000000
champsim_seed 271

num_cpus 1
cpu_freq 4000
dram_io_freq 2400
page_size 4096
block_size 64
max_read_per_cycle 8
max_fill_per_cycle 1
dram_channels 1
dram_ranks 1
dram_banks 8
dram_rows 65536
dram_columns 128
dram_row_size 8
dram_size 4096
dram_pages 1048576

fetch_width 6
decode_width 6
exec_width 4
lq_width 2
sq_width 2
retire_width 4
scheduler_size 128
branch_mispredict_penalty 20
rob_size 256
lq_size 72
sq_size 56
num_instr_destinations_sparc 4
num_instr_destinations 2
num_instr_sources 4

itlb_set 16
itlb_way 8
itlb_rq_size 16
itlb_wq_size 16
itlb_pq_size 0
itlb_mshr_size 8
itlb_latency 1

dtlb_set 16
dtlb_way 4
dtlb_rq_size 16
dtlb_wq_size 16
dtlb_pq_size 0
dtlb_mshr_size 8
dtlb_latency 1

stlb_set 128
stlb_way 12
stlb_rq_size 32
stlb_wq_size 32
stlb_pq_size 0
stlb_mshr_size 16
stlb_latency 8

l1i_size 32
l1i_set 64
l1i_way 8
l1i_rq_size 64
l1i_wq_size 64
l1i_pq_size 8
l1i_mshr_size 8
l1i_latency 1

l1d_size 32
l1d_set 64
l1d_way 8
l1d_rq_size 64
l1d_wq_size 64
l1d_pq_size 8
l1d_mshr_size 16
l1d_latency 4

l2c_size 512
l2c_set 1024
l2c_way 8
l2c_rq_size 32
l2c_wq_size 32
l2c_pq_size 16
l2c_mshr_size 32
l2c_latency 10

llc_size 2048
llc_set 2048
llc_way 16
llc_rq_size 32
llc_wq_size 32
llc_pq_size 32
llc_mshr_size 64
llc_latency 20

dram_channel_width 8
dram_wq_size 64
dram_rq_size 64
tRP 15
tRCD 15
tCAS 12.5
dram_dbus_turn_around_time 30
dram_write_high_wm 56
dram_write_low_wm 48
min_dram_writes_per_switch 16
dram_mtps 2400
dram_dbus_return_time 13


Heartbeat CPU  0 instructions:    1000000 cycles:     702357 heartbeat IPC: 1.42378 cumulative IPC: 1.42378 (Simulation time: 0 hr 0 min 2 sec) 
Heartbeat CPU  0 instructions:    2000000 cycles:    1404560 heartbeat IPC: 1.42409 cumulative IPC: 1.42393 (Simulation time: 0 hr 0 min 4 sec) 
Heartbeat CPU  0 instructions:    3000000 cycles:    2106854 heartbeat IPC: 1.42391 cumulative IPC: 1.42392 (Simulation time: 0 hr 0 min 6 sec) 
Heartbeat CPU  0 instructions:    4000000 cycles:    2809169 heartbeat IPC: 1.42386 cumulative IPC: 1.42391 (Simulation time: 0 hr 0 min 8 sec) 
Heartbeat CPU  0 instructions:    5000000 cycles:    3511346 heartbeat IPC: 1.42414 cumulative IPC: 1.42396 (Simulation time: 0 hr 0 min 9 sec) 
Heartbeat CPU  0 instructions:    6000000 cycles:    4213665 heartbeat IPC: 1.42385 cumulative IPC: 1.42394 (Simulation time: 0 hr 0 min 11 sec) 
Heartbeat CPU  0 instructions:    7000001 cycles:    4916049 heartbeat IPC: 1.42372 cumulative IPC: 1.42391 (Simulation time: 0 hr 0 min 13 sec) 
Heartbeat CPU  0 instructions:    8000000 cycles:    5618162 heartbeat IPC: 1.42427 cumulative IPC: 1.42395 (Simulation time: 0 hr 0 min 15 sec) 
Heartbeat CPU  0 instructions:    9000001 cycles:    6320631 heartbeat IPC: 1.42355 cumulative IPC: 1.42391 (Simulation time: 0 hr 0 min 16 sec) 
Heartbeat CPU  0 instructions:   10000000 cycles:    7022804 heartbeat IPC: 1.42415 cumulative IPC: 1.42393 (Simulation time: 0 hr 0 min 18 sec) 
Heartbeat CPU  0 instructions:   11000002 cycles:    7724986 heartbeat IPC: 1.42414 cumulative IPC: 1.42395 (Simulation time: 0 hr 0 min 20 sec) 
Heartbeat CPU  0 instructions:   12000000 cycles:    8427112 heartbeat IPC: 1.42424 cumulative IPC: 1.42398 (Simulation time: 0 hr 0 min 22 sec) 
Heartbeat CPU  0 instructions:   13000000 cycles:    9129669 heartbeat IPC: 1.42337 cumulative IPC: 1.42393 (Simulation time: 0 hr 0 min 23 sec) 
Heartbeat CPU  0 instructions:   14000002 cycles:    9831916 heartbeat IPC: 1.42400 cumulative IPC: 1.42393 (Simulation time: 0 hr 0 min 25 sec) 
Heartbeat CPU  0 instructions:   15000002 cycles:   10533820 heartbeat IPC: 1.42470 cumulative IPC: 1.42399 (Simulation time: 0 hr 0 min 27 sec) 
Heartbeat CPU  0 instructions:   16000000 cycles:   11236340 heartbeat IPC: 1.42344 cumulative IPC: 1.42395 (Simulation time: 0 hr 0 min 29 sec) 
Heartbeat CPU  0 instructions:   17000000 cycles:   11938861 heartbeat IPC: 1.42344 cumulative IPC: 1.42392 (Simulation time: 0 hr 0 min 30 sec) 
Heartbeat CPU  0 instructions:   18000001 cycles:   12599032 heartbeat IPC: 1.51476 cumulative IPC: 1.42868 (Simulation time: 0 hr 0 min 32 sec) 
Heartbeat CPU  0 instructions:   19000000 cycles:   13232971 heartbeat IPC: 1.57744 cumulative IPC: 1.43581 (Simulation time: 0 hr 0 min 34 sec) 
Heartbeat CPU  0 instructions:   20000000 cycles:   13935475 heartbeat IPC: 1.42348 cumulative IPC: 1.43519 (Simulation time: 0 hr 0 min 36 sec) 
Heartbeat CPU  0 instructions:   21000000 cycles:   14637833 heartbeat IPC: 1.42378 cumulative IPC: 1.43464 (Simulation time: 0 hr 0 min 37 sec) 
Heartbeat CPU  0 instructions:   22000002 cycles:   15340129 heartbeat IPC: 1.42390 cumulative IPC: 1.43415 (Simulation time: 0 hr 0 min 39 sec) 
Heartbeat CPU  0 instructions:   23000001 cycles:   16042495 heartbeat IPC: 1.42376 cumulative IPC: 1.43369 (Simulation time: 0 hr 0 min 41 sec) 
Heartbeat CPU  0 instructions:   24000000 cycles:   16744596 heartbeat IPC: 1.42430 cumulative IPC: 1.43330 (Simulation time: 0 hr 0 min 43 sec) 
Heartbeat CPU  0 instructions:   25000001 cycles:   17446903 heartbeat IPC: 1.42388 cumulative IPC: 1.43292 (Simulation time: 0 hr 0 min 44 sec) 
Heartbeat CPU  0 instructions:   26000003 cycles:   18149502 heartbeat IPC: 1.42329 cumulative IPC: 1.43255 (Simulation time: 0 hr 0 min 46 sec) 
Heartbeat CPU  0 instructions:   27000003 cycles:   18851686 heartbeat IPC: 1.42413 cumulative IPC: 1.43223 (Simulation time: 0 hr 0 min 48 sec) 
Heartbeat CPU  0 instructions:   28000000 cycles:   19553810 heartbeat IPC: 1.42425 cumulative IPC: 1.43195 (Simulation time: 0 hr 0 min 50 sec) 
Heartbeat CPU  0 instructions:   29000000 cycles:   20256242 heartbeat IPC: 1.42363 cumulative IPC: 1.43166 (Simulation time: 0 hr 0 min 51 sec) 
Heartbeat CPU  0 instructions:   30000003 cycles:   20958591 heartbeat IPC: 1.42380 cumulative IPC: 1.43139 (Simulation time: 0 hr 0 min 53 sec) 
Heartbeat CPU  0 instructions:   31000003 cycles:   21660539 heartbeat IPC: 1.42461 cumulative IPC: 1.43117 (Simulation time: 0 hr 0 min 55 sec) 
Heartbeat CPU  0 instructions:   32000000 cycles:   22362602 heartbeat IPC: 1.42437 cumulative IPC: 1.43096 (Simulation time: 0 hr 0 min 57 sec) 
Heartbeat CPU  0 instructions:   33000001 cycles:   23065305 heartbeat IPC: 1.42308 cumulative IPC: 1.43072 (Simulation time: 0 hr 0 min 59 sec) 
Heartbeat CPU  0 instructions:   34000000 cycles:   23767412 heartbeat IPC: 1.42428 cumulative IPC: 1.43053 (Simulation time: 0 hr 1 min 0 sec) 
Heartbeat CPU  0 instructions:   35000001 cycles:   24469648 heartbeat IPC: 1.42402 cumulative IPC: 1.43034 (Simulation time: 0 hr 1 min 2 sec) 
Heartbeat CPU  0 instructions:   36000000 cycles:   25171890 heartbeat IPC: 1.42401 cumulative IPC: 1.43017 (Simulation time: 0 hr 1 min 4 sec) 
Heartbeat CPU  0 instructions:   37000000 cycles:   25874449 heartbeat IPC: 1.42337 cumulative IPC: 1.42998 (Simulation time: 0 hr 1 min 6 sec) 
Heartbeat CPU  0 instructions:   38000001 cycles:   26576623 heartbeat IPC: 1.42415 cumulative IPC: 1.42983 (Simulation time: 0 hr 1 min 7 sec) 
Heartbeat CPU  0 instructions:   39000000 cycles:   27278868 heartbeat IPC: 1.42400 cumulative IPC: 1.42968 (Simulation time: 0 hr 1 min 9 sec) 
Heartbeat CPU  0 instructions:   40000000 cycles:   27981137 heartbeat IPC: 1.42396 cumulative IPC: 1.42953 (Simulation time: 0 hr 1 min 11 sec) 
Heartbeat CPU  0 instructions:   41000000 cycles:   28584455 heartbeat IPC: 1.65750 cumulative IPC: 1.43435 (Simulation time: 0 hr 1 min 12 sec) 
Heartbeat CPU  0 instructions:   42000002 cycles:   29275602 heartbeat IPC: 1.44687 cumulative IPC: 1.43464 (Simulation time: 0 hr 1 min 14 sec) 
Heartbeat CPU  0 instructions:   43000002 cycles:   29977984 heartbeat IPC: 1.42373 cumulative IPC: 1.43439 (Simulation time: 0 hr 1 min 16 sec) 
Heartbeat CPU  0 instructions:   44000000 cycles:   30680395 heartbeat IPC: 1.42367 cumulative IPC: 1.43414 (Simulation time: 0 hr 1 min 18 sec) 
Heartbeat CPU  0 instructions:   45000003 cycles:   31382659 heartbeat IPC: 1.42397 cumulative IPC: 1.43391 (Simulation time: 0 hr 1 min 19 sec) 
Heartbeat CPU  0 instructions:   46000003 cycles:   32084842 heartbeat IPC: 1.42413 cumulative IPC: 1.43370 (Simulation time: 0 hr 1 min 21 sec) 
Heartbeat CPU  0 instructions:   47000000 cycles:   32787004 heartbeat IPC: 1.42417 cumulative IPC: 1.43349 (Simulation time: 0 hr 1 min 23 sec) 
Heartbeat CPU  0 instructions:   48000000 cycles:   33489594 heartbeat IPC: 1.42331 cumulative IPC: 1.43328 (Simulation time: 0 hr 1 min 25 sec) 
Heartbeat CPU  0 instructions:   49000000 cycles:   34191610 heartbeat IPC: 1.42447 cumulative IPC: 1.43310 (Simulation time: 0 hr 1 min 27 sec) 
Heartbeat CPU  0 instructions:   50000000 cycles:   34893908 heartbeat IPC: 1.42390 cumulative IPC: 1.43291 (Simulation time: 0 hr 1 min 28 sec) 
Heartbeat CPU  0 instructions:   51000000 cycles:   35596398 heartbeat IPC: 1.42351 cumulative IPC: 1.43273 (Simulation time: 0 hr 1 min 30 sec) 
Heartbeat CPU  0 instructions:   52000000 cycles:   36298572 heartbeat IPC: 1.42415 cumulative IPC: 1.43256 (Simulation time: 0 hr 1 min 32 sec) 
Heartbeat CPU  0 instructions:   53000000 cycles:   37000975 heartbeat IPC: 1.42368 cumulative IPC: 1.43239 (Simulation time: 0 hr 1 min 34 sec) 
Heartbeat CPU  0 instructions:   54000001 cycles:   37703032 heartbeat IPC: 1.42439 cumulative IPC: 1.43225 (Simulation time: 0 hr 1 min 36 sec) 
Heartbeat CPU  0 instructions:   55000001 cycles:   38405301 heartbeat IPC: 1.42396 cumulative IPC: 1.43209 (Simulation time: 0 hr 1 min 37 sec) 
Heartbeat CPU  0 instructions:   56000000 cycles:   39107768 heartbeat IPC: 1.42355 cumulative IPC: 1.43194 (Simulation time: 0 hr 1 min 39 sec) 
Heartbeat CPU  0 instructions:   57000000 cycles:   39810240 heartbeat IPC: 1.42354 cumulative IPC: 1.43179 (Simulation time: 0 hr 1 min 41 sec) 
Heartbeat CPU  0 instructions:   58000003 cycles:   40512539 heartbeat IPC: 1.42390 cumulative IPC: 1.43166 (Simulation time: 0 hr 1 min 43 sec) 
Heartbeat CPU  0 instructions:   59000000 cycles:   41214667 heartbeat IPC: 1.42424 cumulative IPC: 1.43153 (Simulation time: 0 hr 1 min 45 sec) 
Heartbeat CPU  0 instructions:   60000000 cycles:   41917077 heartbeat IPC: 1.42367 cumulative IPC: 1.43140 (Simulation time: 0 hr 1 min 46 sec) 
Heartbeat CPU  0 instructions:   61000000 cycles:   42619256 heartbeat IPC: 1.42414 cumulative IPC: 1.43128 (Simulation time: 0 hr 1 min 48 sec) 
Heartbeat CPU  0 instructions:   62000002 cycles:   43321517 heartbeat IPC: 1.42397 cumulative IPC: 1.43116 (Simulation time: 0 hr 1 min 50 sec) 
Heartbeat CPU  0 instructions:   63000000 cycles:   43967761 heartbeat IPC: 1.54740 cumulative IPC: 1.43287 (Simulation time: 0 hr 1 min 52 sec) 
Heartbeat CPU  0 instructions:   64000000 cycles:   44617835 heartbeat IPC: 1.53829 cumulative IPC: 1.43440 (Simulation time: 0 hr 1 min 53 sec) 
Heartbeat CPU  0 instructions:   65000000 cycles:   45319859 heartbeat IPC: 1.42445 cumulative IPC: 1.43425 (Simulation time: 0 hr 1 min 55 sec) 
Heartbeat CPU  0 instructions:   66000001 cycles:   46021930 heartbeat IPC: 1.42436 cumulative IPC: 1.43410 (Simulation time: 0 hr 1 min 57 sec) 
Heartbeat CPU  0 instructions:   67000002 cycles:   46724033 heartbeat IPC: 1.42429 cumulative IPC: 1.43395 (Simulation time: 0 hr 1 min 59 sec) 
Heartbeat CPU  0 instructions:   68000000 cycles:   47426416 heartbeat IPC: 1.42372 cumulative IPC: 1.43380 (Simulation time: 0 hr 2 min 0 sec) 
Heartbeat CPU  0 instructions:   69000000 cycles:   48128586 heartbeat IPC: 1.42416 cumulative IPC: 1.43366 (Simulation time: 0 hr 2 min 2 sec) 
Heartbeat CPU  0 instructions:   70000002 cycles:   48830680 heartbeat IPC: 1.42431 cumulative IPC: 1.43353 (Simulation time: 0 hr 2 min 4 sec) 
Heartbeat CPU  0 instructions:   71000003 cycles:   49533302 heartbeat IPC: 1.42324 cumulative IPC: 1.43338 (Simulation time: 0 hr 2 min 6 sec) 
Heartbeat CPU  0 instructions:   72000000 cycles:   50235355 heartbeat IPC: 1.42439 cumulative IPC: 1.43325 (Simulation time: 0 hr 2 min 7 sec) 
Heartbeat CPU  0 instructions:   73000001 cycles:   50937495 heartbeat IPC: 1.42422 cumulative IPC: 1.43313 (Simulation time: 0 hr 2 min 9 sec) 
Heartbeat CPU  0 instructions:   74000003 cycles:   51639791 heartbeat IPC: 1.42390 cumulative IPC: 1.43300 (Simulation time: 0 hr 2 min 11 sec) 
Heartbeat CPU  0 instructions:   75000002 cycles:   52342453 heartbeat IPC: 1.42316 cumulative IPC: 1.43287 (Simulation time: 0 hr 2 min 13 sec) 
Heartbeat CPU  0 instructions:   76000000 cycles:   53044642 heartbeat IPC: 1.42412 cumulative IPC: 1.43276 (Simulation time: 0 hr 2 min 15 sec) 
Heartbeat CPU  0 instructions:   77000003 cycles:   53747230 heartbeat IPC: 1.42331 cumulative IPC: 1.43263 (Simulation time: 0 hr 2 min 16 sec) 
Heartbeat CPU  0 instructions:   78000001 cycles:   54449717 heartbeat IPC: 1.42351 cumulative IPC: 1.43251 (Simulation time: 0 hr 2 min 18 sec) 
Heartbeat CPU  0 instructions:   79000001 cycles:   55151647 heartbeat IPC: 1.42464 cumulative IPC: 1.43241 (Simulation time: 0 hr 2 min 20 sec) 
Heartbeat CPU  0 instructions:   80000000 cycles:   55853688 heartbeat IPC: 1.42442 cumulative IPC: 1.43231 (Simulation time: 0 hr 2 min 22 sec) 
Heartbeat CPU  0 instructions:   81000002 cycles:   56556021 heartbeat IPC: 1.42383 cumulative IPC: 1.43221 (Simulation time: 0 hr 2 min 24 sec) 
Heartbeat CPU  0 instructions:   82000003 cycles:   57258248 heartbeat IPC: 1.42404 cumulative IPC: 1.43211 (Simulation time: 0 hr 2 min 25 sec) 
Heartbeat CPU  0 instructions:   83000001 cycles:   57960494 heartbeat IPC: 1.42400 cumulative IPC: 1.43201 (Simulation time: 0 hr 2 min 27 sec) 
Heartbeat CPU  0 instructions:   84000000 cycles:   58662712 heartbeat IPC: 1.42406 cumulative IPC: 1.43191 (Simulation time: 0 hr 2 min 29 sec) 
Heartbeat CPU  0 instructions:   85000000 cycles:   59351059 heartbeat IPC: 1.45276 cumulative IPC: 1.43216 (Simulation time: 0 hr 2 min 31 sec) 
Heartbeat CPU  0 instructions:   86000002 cycles:   59958290 heartbeat IPC: 1.64682 cumulative IPC: 1.43433 (Simulation time: 0 hr 2 min 32 sec) 
Heartbeat CPU  0 instructions:   87000002 cycles:   60660730 heartbeat IPC: 1.42361 cumulative IPC: 1.43421 (Simulation time: 0 hr 2 min 34 sec) 
Heartbeat CPU  0 instructions:   88000000 cycles:   61363357 heartbeat IPC: 1.42323 cumulative IPC: 1.43408 (Simulation time: 0 hr 2 min 36 sec) 
Heartbeat CPU  0 instructions:   89000001 cycles:   62065394 heartbeat IPC: 1.42443 cumulative IPC: 1.43397 (Simulation time: 0 hr 2 min 38 sec) 
Heartbeat CPU  0 instructions:   90000003 cycles:   62767705 heartbeat IPC: 1.42387 cumulative IPC: 1.43386 (Simulation time: 0 hr 2 min 40 sec) 
Heartbeat CPU  0 instructions:   91000003 cycles:   63470116 heartbeat IPC: 1.42367 cumulative IPC: 1.43375 (Simulation time: 0 hr 2 min 41 sec) 
Heartbeat CPU  0 instructions:   92000000 cycles:   64172311 heartbeat IPC: 1.42410 cumulative IPC: 1.43364 (Simulation time: 0 hr 2 min 43 sec) 
Heartbeat CPU  0 instructions:   93000002 cycles:   64874672 heartbeat IPC: 1.42377 cumulative IPC: 1.43353 (Simulation time: 0 hr 2 min 45 sec) 
Heartbeat CPU  0 instructions:   94000002 cycles:   65576692 heartbeat IPC: 1.42446 cumulative IPC: 1.43344 (Simulation time: 0 hr 2 min 47 sec) 
Heartbeat CPU  0 instructions:   95000003 cycles:   66278846 heartbeat IPC: 1.42419 cumulative IPC: 1.43334 (Simulation time: 0 hr 2 min 49 sec) 
Heartbeat CPU  0 instructions:   96000000 cycles:   66981102 heartbeat IPC: 1.42398 cumulative IPC: 1.43324 (Simulation time: 0 hr 2 min 50 sec) 
Heartbeat CPU  0 instructions:   97000000 cycles:   67683434 heartbeat IPC: 1.42383 cumulative IPC: 1.43314 (Simulation time: 0 hr 2 min 52 sec) 
Heartbeat CPU  0 instructions:   98000002 cycles:   68385611 heartbeat IPC: 1.42415 cumulative IPC: 1.43305 (Simulation time: 0 hr 2 min 54 sec) 
Heartbeat CPU  0 instructions:   99000003 cycles:   69087827 heartbeat IPC: 1.42406 cumulative IPC: 1.43296 (Simulation time: 0 hr 2 min 56 sec) 
Heartbeat CPU  0 instructions:  100000000 cycles:   69790198 heartbeat IPC: 1.42374 cumulative IPC: 1.43287 (Simulation time: 0 hr 2 min 58 sec) 

Warmup complete CPU  0 instructions:  100000001 cycles:   69790218 (Simulation time: 0 hr 2 min 58 sec) 

Heartbeat CPU  0 instructions:  101000000 cycles:   71711013 heartbeat IPC: 0.52061 cumulative IPC: 0.52062 (Simulation time: 0 hr 3 min 0 sec) 
Heartbeat CPU  0 instructions:  102000003 cycles:   73461260 heartbeat IPC: 0.57135 cumulative IPC: 0.54480 (Simulation time: 0 hr 3 min 2 sec) 
Heartbeat CPU  0 instructions:  103000003 cycles:   75321687 heartbeat IPC: 0.53751 cumulative IPC: 0.54235 (Simulation time: 0 hr 3 min 4 sec) 
Heartbeat CPU  0 instructions:  104000000 cycles:   77230394 heartbeat IPC: 0.52391 cumulative IPC: 0.53762 (Simulation time: 0 hr 3 min 6 sec) 
Heartbeat CPU  0 instructions:  105000002 cycles:   79060670 heartbeat IPC: 0.54637 cumulative IPC: 0.53935 (Simulation time: 0 hr 3 min 8 sec) 
Heartbeat CPU  0 instructions:  106000000 cycles:   80851383 heartbeat IPC: 0.55844 cumulative IPC: 0.54244 (Simulation time: 0 hr 3 min 9 sec) 
Heartbeat CPU  0 instructions:  107000003 cycles:   82756548 heartbeat IPC: 0.52489 cumulative IPC: 0.53986 (Simulation time: 0 hr 3 min 11 sec) 
Heartbeat CPU  0 instructions:  108000000 cycles:   93531749 heartbeat IPC: 0.09281 cumulative IPC: 0.33696 (Simulation time: 0 hr 3 min 14 sec) 
Heartbeat CPU  0 instructions:  109000003 cycles:  100303950 heartbeat IPC: 0.14766 cumulative IPC: 0.29495 (Simulation time: 0 hr 3 min 16 sec) 
Heartbeat CPU  0 instructions:  110000001 cycles:  102209841 heartbeat IPC: 0.52469 cumulative IPC: 0.30846 (Simulation time: 0 hr 3 min 18 sec) 
Heartbeat CPU  0 instructions:  111000000 cycles:  104122972 heartbeat IPC: 0.52270 cumulative IPC: 0.32039 (Simulation time: 0 hr 3 min 20 sec) 
Heartbeat CPU  0 instructions:  112000000 cycles:  105886092 heartbeat IPC: 0.56718 cumulative IPC: 0.33245 (Simulation time: 0 hr 3 min 22 sec) 
Heartbeat CPU  0 instructions:  113000000 cycles:  107750425 heartbeat IPC: 0.53638 cumulative IPC: 0.34246 (Simulation time: 0 hr 3 min 24 sec) 
Heartbeat CPU  0 instructions:  114000000 cycles:  109672150 heartbeat IPC: 0.52037 cumulative IPC: 0.35104 (Simulation time: 0 hr 3 min 26 sec) 
Heartbeat CPU  0 instructions:  115000001 cycles:  111501281 heartbeat IPC: 0.54671 cumulative IPC: 0.35962 (Simulation time: 0 hr 3 min 28 sec) 
Heartbeat CPU  0 instructions:  116000000 cycles:  113291241 heartbeat IPC: 0.55867 cumulative IPC: 0.36781 (Simulation time: 0 hr 3 min 30 sec) 
Heartbeat CPU  0 instructions:  117000003 cycles:  115203848 heartbeat IPC: 0.52285 cumulative IPC: 0.37434 (Simulation time: 0 hr 3 min 32 sec) 
Heartbeat CPU  0 instructions:  118000002 cycles:  117102095 heartbeat IPC: 0.52680 cumulative IPC: 0.38045 (Simulation time: 0 hr 3 min 34 sec) 
Heartbeat CPU  0 instructions:  119000002 cycles:  118842449 heartbeat IPC: 0.57460 cumulative IPC: 0.38734 (Simulation time: 0 hr 3 min 36 sec) 
Heartbeat CPU  0 instructions:  120000000 cycles:  120741401 heartbeat IPC: 0.52661 cumulative IPC: 0.39253 (Simulation time: 0 hr 3 min 38 sec) 
Heartbeat CPU  0 instructions:  121000003 cycles:  122651111 heartbeat IPC: 0.52364 cumulative IPC: 0.39727 (Simulation time: 0 hr 3 min 40 sec) 
Heartbeat CPU  0 instructions:  122000002 cycles:  124424739 heartbeat IPC: 0.56382 cumulative IPC: 0.40268 (Simulation time: 0 hr 3 min 42 sec) 
Heartbeat CPU  0 instructions:  123000002 cycles:  126273573 heartbeat IPC: 0.54088 cumulative IPC: 0.40720 (Simulation time: 0 hr 3 min 44 sec) 
Heartbeat CPU  0 instructions:  124000000 cycles:  128188349 heartbeat IPC: 0.52225 cumulative IPC: 0.41097 (Simulation time: 0 hr 3 min 46 sec) 
Heartbeat CPU  0 instructions:  125000000 cycles:  130040809 heartbeat IPC: 0.53982 cumulative IPC: 0.41493 (Simulation time: 0 hr 3 min 48 sec) 
Heartbeat CPU  0 instructions:  126000002 cycles:  131825439 heartbeat IPC: 0.56034 cumulative IPC: 0.41912 (Simulation time: 0 hr 3 min 50 sec) 
Heartbeat CPU  0 instructions:  127000002 cycles:  133856709 heartbeat IPC: 0.49230 cumulative IPC: 0.42144 (Simulation time: 0 hr 3 min 52 sec) 
Heartbeat CPU  0 instructions:  128000000 cycles:  135759684 heartbeat IPC: 0.52549 cumulative IPC: 0.42444 (Simulation time: 0 hr 3 min 54 sec) 
Heartbeat CPU  0 instructions:  129000001 cycles:  137495928 heartbeat IPC: 0.57596 cumulative IPC: 0.42832 (Simulation time: 0 hr 3 min 56 sec) 
Heartbeat CPU  0 instructions:  130000000 cycles:  143031196 heartbeat IPC: 0.18066 cumulative IPC: 0.40961 (Simulation time: 0 hr 3 min 58 sec) 
Heartbeat CPU  0 instructions:  131000003 cycles:  155210306 heartbeat IPC: 0.08211 cumulative IPC: 0.36291 (Simulation time: 0 hr 4 min 0 sec) 
Heartbeat CPU  0 instructions:  132000000 cycles:  156988034 heartbeat IPC: 0.56251 cumulative IPC: 0.36698 (Simulation time: 0 hr 4 min 2 sec) 
Heartbeat CPU  0 instructions:  133000000 cycles:  158839835 heartbeat IPC: 0.54001 cumulative IPC: 0.37058 (Simulation time: 0 hr 4 min 4 sec) 
Heartbeat CPU  0 instructions:  134000000 cycles:  160754917 heartbeat IPC: 0.52217 cumulative IPC: 0.37377 (Simulation time: 0 hr 4 min 6 sec) 
Heartbeat CPU  0 instructions:  135000000 cycles:  162606495 heartbeat IPC: 0.54008 cumulative IPC: 0.37709 (Simulation time: 0 hr 4 min 8 sec) 
Heartbeat CPU  0 instructions:  136000000 cycles:  164381392 heartbeat IPC: 0.56341 cumulative IPC: 0.38059 (Simulation time: 0 hr 4 min 10 sec) 
Heartbeat CPU  0 instructions:  137000002 cycles:  166294359 heartbeat IPC: 0.52275 cumulative IPC: 0.38340 (Simulation time: 0 hr 4 min 12 sec) 
Heartbeat CPU  0 instructions:  138000001 cycles:  168198572 heartbeat IPC: 0.52515 cumulative IPC: 0.38615 (Simulation time: 0 hr 4 min 14 sec) 
Heartbeat CPU  0 instructions:  139000001 cycles:  169935662 heartbeat IPC: 0.57568 cumulative IPC: 0.38943 (Simulation time: 0 hr 4 min 16 sec) 
Heartbeat CPU  0 instructions:  140000000 cycles:  171837927 heartbeat IPC: 0.52569 cumulative IPC: 0.39197 (Simulation time: 0 hr 4 min 18 sec) 
Heartbeat CPU  0 instructions:  141000000 cycles:  173751515 heartbeat IPC: 0.52258 cumulative IPC: 0.39438 (Simulation time: 0 hr 4 min 20 sec) 
Heartbeat CPU  0 instructions:  142000001 cycles:  175541380 heartbeat IPC: 0.55870 cumulative IPC: 0.39716 (Simulation time: 0 hr 4 min 22 sec) 
Heartbeat CPU  0 instructions:  143000001 cycles:  177372006 heartbeat IPC: 0.54626 cumulative IPC: 0.39970 (Simulation time: 0 hr 4 min 24 sec) 
Heartbeat CPU  0 instructions:  144000000 cycles:  179286588 heartbeat IPC: 0.52231 cumulative IPC: 0.40184 (Simulation time: 0 hr 4 min 26 sec) 
Heartbeat CPU  0 instructions:  145000000 cycles:  181155749 heartbeat IPC: 0.53500 cumulative IPC: 0.40407 (Simulation time: 0 hr 4 min 28 sec) 
Heartbeat CPU  0 instructions:  146000002 cycles:  182916042 heartbeat IPC: 0.56809 cumulative IPC: 0.40663 (Simulation time: 0 hr 4 min 30 sec) 
Heartbeat CPU  0 instructions:  147000003 cycles:  184825314 heartbeat IPC: 0.52376 cumulative IPC: 0.40857 (Simulation time: 0 hr 4 min 32 sec) 
Heartbeat CPU  0 instructions:  148000000 cycles:  186729344 heartbeat IPC: 0.52520 cumulative IPC: 0.41047 (Simulation time: 0 hr 4 min 34 sec) 
Heartbeat CPU  0 instructions:  149000002 cycles:  188472701 heartbeat IPC: 0.57361 cumulative IPC: 0.41287 (Simulation time: 0 hr 4 min 36 sec) 
Heartbeat CPU  0 instructions:  150000003 cycles:  190360938 heartbeat IPC: 0.52960 cumulative IPC: 0.41469 (Simulation time: 0 hr 4 min 38 sec) 
Heartbeat CPU  0 instructions:  151000003 cycles:  192270144 heartbeat IPC: 0.52378 cumulative IPC: 0.41639 (Simulation time: 0 hr 4 min 40 sec) 
Heartbeat CPU  0 instructions:  152000000 cycles:  194089366 heartbeat IPC: 0.54968 cumulative IPC: 0.41835 (Simulation time: 0 hr 4 min 42 sec) 
Heartbeat CPU  0 instructions:  153000003 cycles:  206945544 heartbeat IPC: 0.07778 cumulative IPC: 0.38642 (Simulation time: 0 hr 4 min 44 sec) 
Heartbeat CPU  0 instructions:  154000000 cycles:  211896028 heartbeat IPC: 0.20200 cumulative IPC: 0.38000 (Simulation time: 0 hr 4 min 46 sec) 
Heartbeat CPU  0 instructions:  155000000 cycles:  213765855 heartbeat IPC: 0.53481 cumulative IPC: 0.38201 (Simulation time: 0 hr 4 min 49 sec) 
Heartbeat CPU  0 instructions:  156000000 cycles:  215524529 heartbeat IPC: 0.56861 cumulative IPC: 0.38426 (Simulation time: 0 hr 4 min 51 sec) 
Heartbeat CPU  0 instructions:  157000001 cycles:  217435101 heartbeat IPC: 0.52340 cumulative IPC: 0.38606 (Simulation time: 0 hr 4 min 53 sec) 
Heartbeat CPU  0 instructions:  158000001 cycles:  219342664 heartbeat IPC: 0.52423 cumulative IPC: 0.38782 (Simulation time: 0 hr 4 min 55 sec) 
Heartbeat CPU  0 instructions:  159000000 cycles:  221084928 heartbeat IPC: 0.57397 cumulative IPC: 0.38997 (Simulation time: 0 hr 4 min 57 sec) 
Heartbeat CPU  0 instructions:  160000000 cycles:  222976287 heartbeat IPC: 0.52872 cumulative IPC: 0.39168 (Simulation time: 0 hr 4 min 59 sec) 
Heartbeat CPU  0 instructions:  161000003 cycles:  224891672 heartbeat IPC: 0.52209 cumulative IPC: 0.39329 (Simulation time: 0 hr 5 min 1 sec) 
Heartbeat CPU  0 instructions:  162000000 cycles:  226700271 heartbeat IPC: 0.55291 cumulative IPC: 0.39513 (Simulation time: 0 hr 5 min 3 sec) 
Heartbeat CPU  0 instructions:  163000003 cycles:  228516413 heartbeat IPC: 0.55062 cumulative IPC: 0.39691 (Simulation time: 0 hr 5 min 5 sec) 
Heartbeat CPU  0 instructions:  164000000 cycles:  230426560 heartbeat IPC: 0.52352 cumulative IPC: 0.39842 (Simulation time: 0 hr 5 min 7 sec) 
Heartbeat CPU  0 instructions:  165000000 cycles:  232320947 heartbeat IPC: 0.52788 cumulative IPC: 0.39992 (Simulation time: 0 hr 5 min 9 sec) 
Heartbeat CPU  0 instructions:  166000001 cycles:  234062237 heartbeat IPC: 0.57429 cumulative IPC: 0.40177 (Simulation time: 0 hr 5 min 11 sec) 
Heartbeat CPU  0 instructions:  167000000 cycles:  235969861 heartbeat IPC: 0.52421 cumulative IPC: 0.40318 (Simulation time: 0 hr 5 min 13 sec) 
Heartbeat CPU  0 instructions:  168000000 cycles:  237879703 heartbeat IPC: 0.52360 cumulative IPC: 0.40455 (Simulation time: 0 hr 5 min 16 sec) 
Heartbeat CPU  0 instructions:  169000001 cycles:  239631313 heartbeat IPC: 0.57090 cumulative IPC: 0.40626 (Simulation time: 0 hr 5 min 18 sec) 
Heartbeat CPU  0 instructions:  170000002 cycles:  241503458 heartbeat IPC: 0.53415 cumulative IPC: 0.40766 (Simulation time: 0 hr 5 min 20 sec) 
Heartbeat CPU  0 instructions:  171000001 cycles:  243419183 heartbeat IPC: 0.52200 cumulative IPC: 0.40892 (Simulation time: 0 hr 5 min 22 sec) 
Heartbeat CPU  0 instructions:  172000000 cycles:  245246477 heartbeat IPC: 0.54726 cumulative IPC: 0.41036 (Simulation time: 0 hr 5 min 24 sec) 
Heartbeat CPU  0 instructions:  173000000 cycles:  247045492 heartbeat IPC: 0.55586 cumulative IPC: 0.41184 (Simulation time: 0 hr 5 min 26 sec) 
Heartbeat CPU  0 instructions:  174000003 cycles:  248958781 heartbeat IPC: 0.52266 cumulative IPC: 0.41302 (Simulation time: 0 hr 5 min 28 sec) 
Heartbeat CPU  0 instructions:  175000000 cycles:  256165403 heartbeat IPC: 0.13876 cumulative IPC: 0.40241 (Simulation time: 0 hr 5 min 30 sec) 
Heartbeat CPU  0 instructions:  176000000 cycles:  266470568 heartbeat IPC: 0.09704 cumulative IPC: 0.38641 (Simulation time: 0 hr 5 min 33 sec) 
Heartbeat CPU  0 instructions:  177000001 cycles:  268452354 heartbeat IPC: 0.50460 cumulative IPC: 0.38759 (Simulation time: 0 hr 5 min 35 sec) 
Heartbeat CPU  0 instructions:  178000003 cycles:  270516158 heartbeat IPC: 0.48454 cumulative IPC: 0.38859 (Simulation time: 0 hr 5 min 37 sec) 
Heartbeat CPU  0 instructions:  179000002 cycles:  272438979 heartbeat IPC: 0.52007 cumulative IPC: 0.38984 (Simulation time: 0 hr 5 min 39 sec) 
Heartbeat CPU  0 instructions:  180000000 cycles:  274341185 heartbeat IPC: 0.52570 cumulative IPC: 0.39110 (Simulation time: 0 hr 5 min 41 sec) 
Heartbeat CPU  0 instructions:  181000003 cycles:  276269450 heartbeat IPC: 0.51860 cumulative IPC: 0.39229 (Simulation time: 0 hr 5 min 43 sec) 
Heartbeat CPU  0 instructions:  182000003 cycles:  278113208 heartbeat IPC: 0.54237 cumulative IPC: 0.39362 (Simulation time: 0 hr 5 min 45 sec) 
Heartbeat CPU  0 instructions:  183000000 cycles:  279940279 heartbeat IPC: 0.54732 cumulative IPC: 0.39496 (Simulation time: 0 hr 5 min 48 sec) 
Heartbeat CPU  0 instructions:  184000000 cycles:  281865858 heartbeat IPC: 0.51932 cumulative IPC: 0.39609 (Simulation time: 0 hr 5 min 50 sec) 
Heartbeat CPU  0 instructions:  185000002 cycles:  283781969 heartbeat IPC: 0.52189 cumulative IPC: 0.39721 (Simulation time: 0 hr 5 min 52 sec) 
Heartbeat CPU  0 instructions:  186000001 cycles:  285557404 heartbeat IPC: 0.56324 cumulative IPC: 0.39858 (Simulation time: 0 hr 5 min 54 sec) 
Heartbeat CPU  0 instructions:  187000000 cycles:  287472077 heartbeat IPC: 0.52228 cumulative IPC: 0.39967 (Simulation time: 0 hr 5 min 56 sec) 
Heartbeat CPU  0 instructions:  188000000 cycles:  289399510 heartbeat IPC: 0.51882 cumulative IPC: 0.40071 (Simulation time: 0 hr 5 min 58 sec) 
Heartbeat CPU  0 instructions:  189000000 cycles:  291186309 heartbeat IPC: 0.55966 cumulative IPC: 0.40199 (Simulation time: 0 hr 6 min 0 sec) 
Heartbeat CPU  0 instructions:  190000000 cycles:  293070767 heartbeat IPC: 0.53066 cumulative IPC: 0.40308 (Simulation time: 0 hr 6 min 2 sec) 
Heartbeat CPU  0 instructions:  191000000 cycles:  294999842 heartbeat IPC: 0.51838 cumulative IPC: 0.40407 (Simulation time: 0 hr 6 min 4 sec) 
Heartbeat CPU  0 instructions:  192000000 cycles:  296858100 heartbeat IPC: 0.53814 cumulative IPC: 0.40517 (Simulation time: 0 hr 6 min 6 sec) 
Heartbeat CPU  0 instructions:  193000001 cycles:  298670251 heartbeat IPC: 0.55183 cumulative IPC: 0.40633 (Simulation time: 0 hr 6 min 8 sec) 
Heartbeat CPU  0 instructions:  194000000 cycles:  300599092 heartbeat IPC: 0.51845 cumulative IPC: 0.40726 (Simulation time: 0 hr 6 min 10 sec) 
Heartbeat CPU  0 instructions:  195000002 cycles:  302513899 heartbeat IPC: 0.52225 cumulative IPC: 0.40821 (Simulation time: 0 hr 6 min 13 sec) 
Heartbeat CPU  0 instructions:  196000000 cycles:  304284545 heartbeat IPC: 0.56476 cumulative IPC: 0.40939 (Simulation time: 0 hr 6 min 15 sec) 
Heartbeat CPU  0 instructions:  197000000 cycles:  306308607 heartbeat IPC: 0.49406 cumulative IPC: 0.41012 (Simulation time: 0 hr 6 min 17 sec) 
Heartbeat CPU  0 instructions:  198000003 cycles:  320704018 heartbeat IPC: 0.06947 cumulative IPC: 0.39057 (Simulation time: 0 hr 6 min 19 sec) 
Heartbeat CPU  0 instructions:  199000001 cycles:  323825758 heartbeat IPC: 0.32033 cumulative IPC: 0.38971 (Simulation time: 0 hr 6 min 22 sec) 
Heartbeat CPU  0 instructions:  200000000 cycles:  325715381 heartbeat IPC: 0.52921 cumulative IPC: 0.39074 (Simulation time: 0 hr 6 min 24 sec) 
Finished CPU 0 instructions: 100000000 cycles: 255925191 cumulative IPC: 0.39074 (Simulation time: 0 hr 6 min 24 sec) 

ChampSim completed all CPUs

[ROI Statistics]
Core_0_instructions 100000000
Core_0_cycles 255925191
Core_0_IPC 0.39074

Core_0_branch_prediction_accuracy 99.16976
Core_0_branch_MPKI 0.01138
Core_0_average_ROB_occupancy_at_mispredict 253.39016

Core_0_L1D_total_access 50868505
Core_0_L1D_total_hit 50045793
Core_0_L1D_total_miss 822712
Core_0_L1D_loads 34151111
Core_0_L1D_load_hit 33492640
Core_0_L1D_load_miss 658471
Core_0_L1D_RFOs 16717394
Core_0_L1D_RFO_hit 16553153
Core_0_L1D_RFO_miss 164241
Core_0_L1D_prefetches 0
Core_0_L1D_prefetch_hit 0
Core_0_L1D_prefetch_miss 0
Core_0_L1D_writebacks 0
Core_0_L1D_writeback_hit 0
Core_0_L1D_writeback_miss 0
Core_0_L1D_prefetch_requested 0
Core_0_L1D_prefetch_issued 0
Core_0_L1D_prefetch_useful 0
Core_0_L1D_prefetch_useless 0
Core_0_L1D_prefetch_late 0
Core_0_L1D_average_miss_latency 98.37882

Core_0_L1I_total_access 26632510
Core_0_L1I_total_hit 26632510
Core_0_L1I_total_miss 0
Core_0_L1I_loads 26632510
Core_0_L1I_load_hit 26632510
Core_0_L1I_load_miss 0
Core_0_L1I_RFOs 0
Core_0_L1I_RFO_hit 0
Core_0_L1I_RFO_miss 0
Core_0_L1I_prefetches 0
Core_0_L1I_prefetch_hit 0
Core_0_L1I_prefetch_miss 0
Core_0_L1I_writebacks 0
Core_0_L1I_writeback_hit 0
Core_0_L1I_writeback_miss 0
Core_0_L1I_prefetch_requested 0
Core_0_L1I_prefetch_issued 0
Core_0_L1I_prefetch_useful 0
Core_0_L1I_prefetch_useless 0
Core_0_L1I_prefetch_late 0
Core_0_L1I_average_miss_latency -nan

Core_0_L2C_total_access 1640640
Core_0_L2C_total_hit 1097622
Core_0_L2C_total_miss 543018
Core_0_L2C_loads 658471
Core_0_L2C_load_hit 651194
Core_0_L2C_load_miss 7277
Core_0_L2C_RFOs 164241
Core_0_L2C_RFO_hit 85
Core_0_L2C_RFO_miss 164156
Core_0_L2C_prefetches 646796
Core_0_L2C_prefetch_hit 275362
Core_0_L2C_prefetch_miss 371434
Core_0_L2C_writebacks 171132
Core_0_L2C_writeback_hit 170981
Core_0_L2C_writeback_miss 151
Core_0_L2C_prefetch_requested 1299060
Core_0_L2C_prefetch_issued 1277843
Core_0_L2C_prefetch_useful 723386
Core_0_L2C_prefetch_useless 399
Core_0_L2C_prefetch_late 943
Core_0_L2C_average_miss_latency 253.51473

Core_0_LLC_total_access 706627
Core_0_LLC_total_hit 146130
Core_0_LLC_total_miss 560497
Core_0_LLC_loads 6373
Core_0_LLC_load_hit 1632
Core_0_LLC_load_miss 4741
Core_0_LLC_RFOs 164156
Core_0_LLC_RFO_hit 26787
Core_0_LLC_RFO_miss 137369
Core_0_LLC_prefetches 372338
Core_0_LLC_prefetch_hit 90719
Core_0_LLC_prefetch_miss 281619
Core_0_LLC_writebacks 163760
Core_0_LLC_writeback_hit 26992
Core_0_LLC_writeback_miss 136768
Core_0_LLC_prefetch_requested 0
Core_0_LLC_prefetch_issued 0
Core_0_LLC_prefetch_useful 636
Core_0_LLC_prefetch_useless 572599
Core_0_LLC_prefetch_late 0
Core_0_LLC_average_miss_latency 181.69406

Core_0_major_page_fault 0
Core_0_minor_page_fault 8761

CPU 0 L2C next line prefetcher final stats
Channel_0_RQ_row_buffer_hit 103932
Channel_0_RQ_row_buffer_miss 319797
Channel_0_WQ_row_buffer_hit 17372
Channel_0_WQ_row_buffer_miss 119588
Channel_0_WQ_full 0
Channel_0_dbus_congested 153928

avg_congested_cycle 10
