*************************************************
   ChampSim Multicore Out-of-Order Simulator
   Last compiled: Dec 22 2023 20:19:01
*************************************************

trace_0 ./test_trace/436.cactusADM-1804B.champsimtrace.xz
CPU 0 L1D next line prefetcher
CPU 0 L2C IP-based stride prefetcher
Initialize SRRIP state
warmup_instructions 100000000
simulation_instructions 100000000
champsim_seed 271

num_cpus 1
cpu_freq 4000
dram_io_freq 2400
page_size 4096
block_size 64
max_read_per_cycle 8
max_fill_per_cycle 1
dram_channels 1
dram_ranks 1
dram_banks 8
dram_rows 65536
dram_columns 128
dram_row_size 8
dram_size 4096
dram_pages 1048576

fetch_width 6
decode_width 6
exec_width 4
lq_width 2
sq_width 2
retire_width 4
scheduler_size 128
branch_mispredict_penalty 20
rob_size 256
lq_size 72
sq_size 56
num_instr_destinations_sparc 4
num_instr_destinations 2
num_instr_sources 4

itlb_set 16
itlb_way 8
itlb_rq_size 16
itlb_wq_size 16
itlb_pq_size 0
itlb_mshr_size 8
itlb_latency 1

dtlb_set 16
dtlb_way 4
dtlb_rq_size 16
dtlb_wq_size 16
dtlb_pq_size 0
dtlb_mshr_size 8
dtlb_latency 1

stlb_set 128
stlb_way 12
stlb_rq_size 32
stlb_wq_size 32
stlb_pq_size 0
stlb_mshr_size 16
stlb_latency 8

l1i_size 32
l1i_set 64
l1i_way 8
l1i_rq_size 64
l1i_wq_size 64
l1i_pq_size 8
l1i_mshr_size 8
l1i_latency 1

l1d_size 32
l1d_set 64
l1d_way 8
l1d_rq_size 64
l1d_wq_size 64
l1d_pq_size 8
l1d_mshr_size 16
l1d_latency 4

l2c_size 512
l2c_set 1024
l2c_way 8
l2c_rq_size 32
l2c_wq_size 32
l2c_pq_size 16
l2c_mshr_size 32
l2c_latency 10

llc_size 2048
llc_set 2048
llc_way 16
llc_rq_size 32
llc_wq_size 32
llc_pq_size 32
llc_mshr_size 64
llc_latency 20

dram_channel_width 8
dram_wq_size 64
dram_rq_size 64
tRP 15
tRCD 15
tCAS 12.5
dram_dbus_turn_around_time 30
dram_write_high_wm 56
dram_write_low_wm 48
min_dram_writes_per_switch 16
dram_mtps 2400
dram_dbus_return_time 13


Heartbeat CPU  0 instructions:    1000000 cycles:     702167 heartbeat IPC: 1.42416 cumulative IPC: 1.42416 (Simulation time: 0 hr 0 min 2 sec) 
Heartbeat CPU  0 instructions:    2000000 cycles:    1404092 heartbeat IPC: 1.42465 cumulative IPC: 1.42441 (Simulation time: 0 hr 0 min 3 sec) 
Heartbeat CPU  0 instructions:    3000000 cycles:    2106232 heartbeat IPC: 1.42422 cumulative IPC: 1.42434 (Simulation time: 0 hr 0 min 5 sec) 
Heartbeat CPU  0 instructions:    4000000 cycles:    2808359 heartbeat IPC: 1.42424 cumulative IPC: 1.42432 (Simulation time: 0 hr 0 min 7 sec) 
Heartbeat CPU  0 instructions:    5000000 cycles:    3510266 heartbeat IPC: 1.42469 cumulative IPC: 1.42439 (Simulation time: 0 hr 0 min 9 sec) 
Heartbeat CPU  0 instructions:    6000000 cycles:    4212372 heartbeat IPC: 1.42429 cumulative IPC: 1.42438 (Simulation time: 0 hr 0 min 11 sec) 
Heartbeat CPU  0 instructions:    7000001 cycles:    4914628 heartbeat IPC: 1.42398 cumulative IPC: 1.42432 (Simulation time: 0 hr 0 min 13 sec) 
Heartbeat CPU  0 instructions:    8000000 cycles:    5616445 heartbeat IPC: 1.42487 cumulative IPC: 1.42439 (Simulation time: 0 hr 0 min 15 sec) 
Heartbeat CPU  0 instructions:    9000001 cycles:    6318672 heartbeat IPC: 1.42404 cumulative IPC: 1.42435 (Simulation time: 0 hr 0 min 16 sec) 
Heartbeat CPU  0 instructions:   10000000 cycles:    7020712 heartbeat IPC: 1.42442 cumulative IPC: 1.42436 (Simulation time: 0 hr 0 min 18 sec) 
Heartbeat CPU  0 instructions:   11000002 cycles:    7722676 heartbeat IPC: 1.42458 cumulative IPC: 1.42438 (Simulation time: 0 hr 0 min 20 sec) 
Heartbeat CPU  0 instructions:   12000000 cycles:    8424610 heartbeat IPC: 1.42463 cumulative IPC: 1.42440 (Simulation time: 0 hr 0 min 22 sec) 
Heartbeat CPU  0 instructions:   13000000 cycles:    9126948 heartbeat IPC: 1.42382 cumulative IPC: 1.42435 (Simulation time: 0 hr 0 min 24 sec) 
Heartbeat CPU  0 instructions:   14000002 cycles:    9829009 heartbeat IPC: 1.42438 cumulative IPC: 1.42436 (Simulation time: 0 hr 0 min 26 sec) 
Heartbeat CPU  0 instructions:   15000002 cycles:   10530699 heartbeat IPC: 1.42513 cumulative IPC: 1.42441 (Simulation time: 0 hr 0 min 28 sec) 
Heartbeat CPU  0 instructions:   16000000 cycles:   11233099 heartbeat IPC: 1.42369 cumulative IPC: 1.42436 (Simulation time: 0 hr 0 min 29 sec) 
Heartbeat CPU  0 instructions:   17000000 cycles:   11935414 heartbeat IPC: 1.42386 cumulative IPC: 1.42433 (Simulation time: 0 hr 0 min 31 sec) 
Heartbeat CPU  0 instructions:   18000001 cycles:   12594460 heartbeat IPC: 1.51735 cumulative IPC: 1.42920 (Simulation time: 0 hr 0 min 33 sec) 
Heartbeat CPU  0 instructions:   19000000 cycles:   13226716 heartbeat IPC: 1.58164 cumulative IPC: 1.43649 (Simulation time: 0 hr 0 min 35 sec) 
Heartbeat CPU  0 instructions:   20000000 cycles:   13928984 heartbeat IPC: 1.42396 cumulative IPC: 1.43585 (Simulation time: 0 hr 0 min 37 sec) 
Heartbeat CPU  0 instructions:   21000000 cycles:   14631146 heartbeat IPC: 1.42417 cumulative IPC: 1.43529 (Simulation time: 0 hr 0 min 39 sec) 
Heartbeat CPU  0 instructions:   22000002 cycles:   15333174 heartbeat IPC: 1.42445 cumulative IPC: 1.43480 (Simulation time: 0 hr 0 min 40 sec) 
Heartbeat CPU  0 instructions:   23000001 cycles:   16035303 heartbeat IPC: 1.42424 cumulative IPC: 1.43434 (Simulation time: 0 hr 0 min 42 sec) 
Heartbeat CPU  0 instructions:   24000000 cycles:   16737159 heartbeat IPC: 1.42479 cumulative IPC: 1.43394 (Simulation time: 0 hr 0 min 44 sec) 
Heartbeat CPU  0 instructions:   25000001 cycles:   17439269 heartbeat IPC: 1.42428 cumulative IPC: 1.43355 (Simulation time: 0 hr 0 min 46 sec) 
Heartbeat CPU  0 instructions:   26000003 cycles:   18141588 heartbeat IPC: 1.42386 cumulative IPC: 1.43317 (Simulation time: 0 hr 0 min 48 sec) 
Heartbeat CPU  0 instructions:   27000003 cycles:   18843552 heartbeat IPC: 1.42457 cumulative IPC: 1.43285 (Simulation time: 0 hr 0 min 50 sec) 
Heartbeat CPU  0 instructions:   28000000 cycles:   19545496 heartbeat IPC: 1.42461 cumulative IPC: 1.43256 (Simulation time: 0 hr 0 min 52 sec) 
Heartbeat CPU  0 instructions:   29000000 cycles:   20247681 heartbeat IPC: 1.42413 cumulative IPC: 1.43226 (Simulation time: 0 hr 0 min 54 sec) 
Heartbeat CPU  0 instructions:   30000003 cycles:   20949817 heartbeat IPC: 1.42423 cumulative IPC: 1.43199 (Simulation time: 0 hr 0 min 55 sec) 
Heartbeat CPU  0 instructions:   31000003 cycles:   21651507 heartbeat IPC: 1.42513 cumulative IPC: 1.43177 (Simulation time: 0 hr 0 min 57 sec) 
Heartbeat CPU  0 instructions:   32000000 cycles:   22353377 heartbeat IPC: 1.42476 cumulative IPC: 1.43155 (Simulation time: 0 hr 0 min 59 sec) 
Heartbeat CPU  0 instructions:   33000001 cycles:   23055857 heartbeat IPC: 1.42353 cumulative IPC: 1.43131 (Simulation time: 0 hr 1 min 1 sec) 
Heartbeat CPU  0 instructions:   34000000 cycles:   23757832 heartbeat IPC: 1.42455 cumulative IPC: 1.43111 (Simulation time: 0 hr 1 min 3 sec) 
Heartbeat CPU  0 instructions:   35000001 cycles:   24459723 heartbeat IPC: 1.42472 cumulative IPC: 1.43092 (Simulation time: 0 hr 1 min 5 sec) 
Heartbeat CPU  0 instructions:   36000000 cycles:   25161693 heartbeat IPC: 1.42456 cumulative IPC: 1.43075 (Simulation time: 0 hr 1 min 7 sec) 
Heartbeat CPU  0 instructions:   37000000 cycles:   25864047 heartbeat IPC: 1.42378 cumulative IPC: 1.43056 (Simulation time: 0 hr 1 min 8 sec) 
Heartbeat CPU  0 instructions:   38000001 cycles:   26566023 heartbeat IPC: 1.42455 cumulative IPC: 1.43040 (Simulation time: 0 hr 1 min 10 sec) 
Heartbeat CPU  0 instructions:   39000000 cycles:   27267947 heartbeat IPC: 1.42465 cumulative IPC: 1.43025 (Simulation time: 0 hr 1 min 12 sec) 
Heartbeat CPU  0 instructions:   40000000 cycles:   27969928 heartbeat IPC: 1.42454 cumulative IPC: 1.43011 (Simulation time: 0 hr 1 min 14 sec) 
Heartbeat CPU  0 instructions:   41000000 cycles:   28570964 heartbeat IPC: 1.66379 cumulative IPC: 1.43502 (Simulation time: 0 hr 1 min 16 sec) 
Heartbeat CPU  0 instructions:   42000002 cycles:   29261623 heartbeat IPC: 1.44790 cumulative IPC: 1.43533 (Simulation time: 0 hr 1 min 18 sec) 
Heartbeat CPU  0 instructions:   43000002 cycles:   29963783 heartbeat IPC: 1.42418 cumulative IPC: 1.43507 (Simulation time: 0 hr 1 min 20 sec) 
Heartbeat CPU  0 instructions:   44000000 cycles:   30665898 heartbeat IPC: 1.42427 cumulative IPC: 1.43482 (Simulation time: 0 hr 1 min 21 sec) 
Heartbeat CPU  0 instructions:   45000003 cycles:   31367892 heartbeat IPC: 1.42452 cumulative IPC: 1.43459 (Simulation time: 0 hr 1 min 23 sec) 
Heartbeat CPU  0 instructions:   46000003 cycles:   32069825 heartbeat IPC: 1.42464 cumulative IPC: 1.43437 (Simulation time: 0 hr 1 min 25 sec) 
Heartbeat CPU  0 instructions:   47000000 cycles:   32771788 heartbeat IPC: 1.42457 cumulative IPC: 1.43416 (Simulation time: 0 hr 1 min 27 sec) 
Heartbeat CPU  0 instructions:   48000000 cycles:   33474125 heartbeat IPC: 1.42382 cumulative IPC: 1.43394 (Simulation time: 0 hr 1 min 29 sec) 
Heartbeat CPU  0 instructions:   49000000 cycles:   34175864 heartbeat IPC: 1.42503 cumulative IPC: 1.43376 (Simulation time: 0 hr 1 min 31 sec) 
Heartbeat CPU  0 instructions:   50000000 cycles:   34877951 heartbeat IPC: 1.42432 cumulative IPC: 1.43357 (Simulation time: 0 hr 1 min 33 sec) 
Heartbeat CPU  0 instructions:   51000000 cycles:   35580226 heartbeat IPC: 1.42394 cumulative IPC: 1.43338 (Simulation time: 0 hr 1 min 35 sec) 
Heartbeat CPU  0 instructions:   52000000 cycles:   36282114 heartbeat IPC: 1.42473 cumulative IPC: 1.43321 (Simulation time: 0 hr 1 min 36 sec) 
Heartbeat CPU  0 instructions:   53000000 cycles:   36984238 heartbeat IPC: 1.42425 cumulative IPC: 1.43304 (Simulation time: 0 hr 1 min 38 sec) 
Heartbeat CPU  0 instructions:   54000001 cycles:   37686069 heartbeat IPC: 1.42485 cumulative IPC: 1.43289 (Simulation time: 0 hr 1 min 40 sec) 
Heartbeat CPU  0 instructions:   55000001 cycles:   38388094 heartbeat IPC: 1.42445 cumulative IPC: 1.43274 (Simulation time: 0 hr 1 min 42 sec) 
Heartbeat CPU  0 instructions:   56000000 cycles:   39090299 heartbeat IPC: 1.42408 cumulative IPC: 1.43258 (Simulation time: 0 hr 1 min 44 sec) 
Heartbeat CPU  0 instructions:   57000000 cycles:   39792522 heartbeat IPC: 1.42405 cumulative IPC: 1.43243 (Simulation time: 0 hr 1 min 46 sec) 
Heartbeat CPU  0 instructions:   58000003 cycles:   40494531 heartbeat IPC: 1.42449 cumulative IPC: 1.43229 (Simulation time: 0 hr 1 min 48 sec) 
Heartbeat CPU  0 instructions:   59000000 cycles:   41196419 heartbeat IPC: 1.42472 cumulative IPC: 1.43216 (Simulation time: 0 hr 1 min 50 sec) 
Heartbeat CPU  0 instructions:   60000000 cycles:   41898619 heartbeat IPC: 1.42410 cumulative IPC: 1.43203 (Simulation time: 0 hr 1 min 51 sec) 
Heartbeat CPU  0 instructions:   61000000 cycles:   42600564 heartbeat IPC: 1.42461 cumulative IPC: 1.43191 (Simulation time: 0 hr 1 min 53 sec) 
Heartbeat CPU  0 instructions:   62000002 cycles:   43302493 heartbeat IPC: 1.42465 cumulative IPC: 1.43179 (Simulation time: 0 hr 1 min 55 sec) 
Heartbeat CPU  0 instructions:   63000000 cycles:   43947314 heartbeat IPC: 1.55081 cumulative IPC: 1.43353 (Simulation time: 0 hr 1 min 57 sec) 
Heartbeat CPU  0 instructions:   64000000 cycles:   44596045 heartbeat IPC: 1.54147 cumulative IPC: 1.43510 (Simulation time: 0 hr 1 min 59 sec) 
Heartbeat CPU  0 instructions:   65000000 cycles:   45297924 heartbeat IPC: 1.42475 cumulative IPC: 1.43494 (Simulation time: 0 hr 2 min 1 sec) 
Heartbeat CPU  0 instructions:   66000001 cycles:   45999710 heartbeat IPC: 1.42494 cumulative IPC: 1.43479 (Simulation time: 0 hr 2 min 3 sec) 
Heartbeat CPU  0 instructions:   67000002 cycles:   46701575 heartbeat IPC: 1.42478 cumulative IPC: 1.43464 (Simulation time: 0 hr 2 min 5 sec) 
Heartbeat CPU  0 instructions:   68000000 cycles:   47403729 heartbeat IPC: 1.42419 cumulative IPC: 1.43449 (Simulation time: 0 hr 2 min 7 sec) 
Heartbeat CPU  0 instructions:   69000000 cycles:   48105733 heartbeat IPC: 1.42449 cumulative IPC: 1.43434 (Simulation time: 0 hr 2 min 8 sec) 
Heartbeat CPU  0 instructions:   70000002 cycles:   48807630 heartbeat IPC: 1.42471 cumulative IPC: 1.43420 (Simulation time: 0 hr 2 min 10 sec) 
Heartbeat CPU  0 instructions:   71000003 cycles:   49509999 heartbeat IPC: 1.42375 cumulative IPC: 1.43405 (Simulation time: 0 hr 2 min 12 sec) 
Heartbeat CPU  0 instructions:   72000000 cycles:   50211845 heartbeat IPC: 1.42481 cumulative IPC: 1.43392 (Simulation time: 0 hr 2 min 14 sec) 
Heartbeat CPU  0 instructions:   73000001 cycles:   50913729 heartbeat IPC: 1.42474 cumulative IPC: 1.43380 (Simulation time: 0 hr 2 min 16 sec) 
Heartbeat CPU  0 instructions:   74000003 cycles:   51615813 heartbeat IPC: 1.42433 cumulative IPC: 1.43367 (Simulation time: 0 hr 2 min 18 sec) 
Heartbeat CPU  0 instructions:   75000002 cycles:   52318228 heartbeat IPC: 1.42366 cumulative IPC: 1.43353 (Simulation time: 0 hr 2 min 20 sec) 
Heartbeat CPU  0 instructions:   76000000 cycles:   53020165 heartbeat IPC: 1.42463 cumulative IPC: 1.43342 (Simulation time: 0 hr 2 min 22 sec) 
Heartbeat CPU  0 instructions:   77000003 cycles:   53722544 heartbeat IPC: 1.42374 cumulative IPC: 1.43329 (Simulation time: 0 hr 2 min 23 sec) 
Heartbeat CPU  0 instructions:   78000001 cycles:   54424860 heartbeat IPC: 1.42386 cumulative IPC: 1.43317 (Simulation time: 0 hr 2 min 25 sec) 
Heartbeat CPU  0 instructions:   79000001 cycles:   55126528 heartbeat IPC: 1.42518 cumulative IPC: 1.43307 (Simulation time: 0 hr 2 min 27 sec) 
Heartbeat CPU  0 instructions:   80000000 cycles:   55828345 heartbeat IPC: 1.42487 cumulative IPC: 1.43296 (Simulation time: 0 hr 2 min 29 sec) 
Heartbeat CPU  0 instructions:   81000002 cycles:   56530464 heartbeat IPC: 1.42426 cumulative IPC: 1.43286 (Simulation time: 0 hr 2 min 31 sec) 
Heartbeat CPU  0 instructions:   82000003 cycles:   57232459 heartbeat IPC: 1.42451 cumulative IPC: 1.43275 (Simulation time: 0 hr 2 min 33 sec) 
Heartbeat CPU  0 instructions:   83000001 cycles:   57934511 heartbeat IPC: 1.42439 cumulative IPC: 1.43265 (Simulation time: 0 hr 2 min 35 sec) 
Heartbeat CPU  0 instructions:   84000000 cycles:   58636489 heartbeat IPC: 1.42454 cumulative IPC: 1.43256 (Simulation time: 0 hr 2 min 36 sec) 
Heartbeat CPU  0 instructions:   85000000 cycles:   59324363 heartbeat IPC: 1.45375 cumulative IPC: 1.43280 (Simulation time: 0 hr 2 min 38 sec) 
Heartbeat CPU  0 instructions:   86000002 cycles:   59929422 heartbeat IPC: 1.65273 cumulative IPC: 1.43502 (Simulation time: 0 hr 2 min 40 sec) 
Heartbeat CPU  0 instructions:   87000002 cycles:   60631666 heartbeat IPC: 1.42401 cumulative IPC: 1.43489 (Simulation time: 0 hr 2 min 42 sec) 
Heartbeat CPU  0 instructions:   88000000 cycles:   61333987 heartbeat IPC: 1.42385 cumulative IPC: 1.43477 (Simulation time: 0 hr 2 min 44 sec) 
Heartbeat CPU  0 instructions:   89000001 cycles:   62035783 heartbeat IPC: 1.42492 cumulative IPC: 1.43466 (Simulation time: 0 hr 2 min 46 sec) 
Heartbeat CPU  0 instructions:   90000003 cycles:   62737881 heartbeat IPC: 1.42431 cumulative IPC: 1.43454 (Simulation time: 0 hr 2 min 47 sec) 
Heartbeat CPU  0 instructions:   91000003 cycles:   63440028 heartbeat IPC: 1.42420 cumulative IPC: 1.43443 (Simulation time: 0 hr 2 min 49 sec) 
Heartbeat CPU  0 instructions:   92000000 cycles:   64141983 heartbeat IPC: 1.42459 cumulative IPC: 1.43432 (Simulation time: 0 hr 2 min 51 sec) 
Heartbeat CPU  0 instructions:   93000002 cycles:   64844020 heartbeat IPC: 1.42443 cumulative IPC: 1.43421 (Simulation time: 0 hr 2 min 53 sec) 
Heartbeat CPU  0 instructions:   94000002 cycles:   65545816 heartbeat IPC: 1.42492 cumulative IPC: 1.43411 (Simulation time: 0 hr 2 min 55 sec) 
Heartbeat CPU  0 instructions:   95000003 cycles:   66247739 heartbeat IPC: 1.42466 cumulative IPC: 1.43401 (Simulation time: 0 hr 2 min 57 sec) 
Heartbeat CPU  0 instructions:   96000000 cycles:   66949812 heartbeat IPC: 1.42435 cumulative IPC: 1.43391 (Simulation time: 0 hr 2 min 58 sec) 
Heartbeat CPU  0 instructions:   97000000 cycles:   67651893 heartbeat IPC: 1.42434 cumulative IPC: 1.43381 (Simulation time: 0 hr 3 min 0 sec) 
Heartbeat CPU  0 instructions:   98000002 cycles:   68353807 heartbeat IPC: 1.42468 cumulative IPC: 1.43372 (Simulation time: 0 hr 3 min 2 sec) 
Heartbeat CPU  0 instructions:   99000003 cycles:   69055768 heartbeat IPC: 1.42458 cumulative IPC: 1.43362 (Simulation time: 0 hr 3 min 4 sec) 
Heartbeat CPU  0 instructions:  100000000 cycles:   69757923 heartbeat IPC: 1.42418 cumulative IPC: 1.43353 (Simulation time: 0 hr 3 min 6 sec) 

Warmup complete CPU  0 instructions:  100000001 cycles:   69757943 (Simulation time: 0 hr 3 min 6 sec) 

Heartbeat CPU  0 instructions:  101000000 cycles:   71661801 heartbeat IPC: 0.52524 cumulative IPC: 0.52525 (Simulation time: 0 hr 3 min 8 sec) 
Heartbeat CPU  0 instructions:  102000003 cycles:   73398542 heartbeat IPC: 0.57579 cumulative IPC: 0.54936 (Simulation time: 0 hr 3 min 10 sec) 
Heartbeat CPU  0 instructions:  103000003 cycles:   75244587 heartbeat IPC: 0.54170 cumulative IPC: 0.54678 (Simulation time: 0 hr 3 min 12 sec) 
Heartbeat CPU  0 instructions:  104000000 cycles:   77137589 heartbeat IPC: 0.52826 cumulative IPC: 0.54203 (Simulation time: 0 hr 3 min 14 sec) 
Heartbeat CPU  0 instructions:  105000002 cycles:   78953949 heartbeat IPC: 0.55055 cumulative IPC: 0.54371 (Simulation time: 0 hr 3 min 16 sec) 
Heartbeat CPU  0 instructions:  106000000 cycles:   80730276 heartbeat IPC: 0.56296 cumulative IPC: 0.54683 (Simulation time: 0 hr 3 min 18 sec) 
Heartbeat CPU  0 instructions:  107000003 cycles:   82619549 heartbeat IPC: 0.52931 cumulative IPC: 0.54426 (Simulation time: 0 hr 3 min 21 sec) 
Heartbeat CPU  0 instructions:  108000000 cycles:   93340793 heartbeat IPC: 0.09327 cumulative IPC: 0.33923 (Simulation time: 0 hr 3 min 23 sec) 
Heartbeat CPU  0 instructions:  109000003 cycles:  100083003 heartbeat IPC: 0.14832 cumulative IPC: 0.29678 (Simulation time: 0 hr 3 min 25 sec) 
Heartbeat CPU  0 instructions:  110000001 cycles:  101970870 heartbeat IPC: 0.52970 cumulative IPC: 0.31043 (Simulation time: 0 hr 3 min 27 sec) 
Heartbeat CPU  0 instructions:  111000000 cycles:  103867039 heartbeat IPC: 0.52738 cumulative IPC: 0.32249 (Simulation time: 0 hr 3 min 29 sec) 
Heartbeat CPU  0 instructions:  112000000 cycles:  105612354 heartbeat IPC: 0.57296 cumulative IPC: 0.33469 (Simulation time: 0 hr 3 min 31 sec) 
Heartbeat CPU  0 instructions:  113000000 cycles:  107460889 heartbeat IPC: 0.54097 cumulative IPC: 0.34480 (Simulation time: 0 hr 3 min 34 sec) 
Heartbeat CPU  0 instructions:  114000000 cycles:  109366822 heartbeat IPC: 0.52468 cumulative IPC: 0.35346 (Simulation time: 0 hr 3 min 36 sec) 
Heartbeat CPU  0 instructions:  115000001 cycles:  111180631 heartbeat IPC: 0.55133 cumulative IPC: 0.36212 (Simulation time: 0 hr 3 min 38 sec) 
Heartbeat CPU  0 instructions:  116000000 cycles:  112956177 heartbeat IPC: 0.56321 cumulative IPC: 0.37039 (Simulation time: 0 hr 3 min 40 sec) 
Heartbeat CPU  0 instructions:  117000003 cycles:  114852608 heartbeat IPC: 0.52731 cumulative IPC: 0.37698 (Simulation time: 0 hr 3 min 42 sec) 
Heartbeat CPU  0 instructions:  118000002 cycles:  116735669 heartbeat IPC: 0.53105 cumulative IPC: 0.38316 (Simulation time: 0 hr 3 min 44 sec) 
Heartbeat CPU  0 instructions:  119000002 cycles:  118460489 heartbeat IPC: 0.57977 cumulative IPC: 0.39012 (Simulation time: 0 hr 3 min 46 sec) 
Heartbeat CPU  0 instructions:  120000000 cycles:  120343832 heartbeat IPC: 0.53097 cumulative IPC: 0.39537 (Simulation time: 0 hr 3 min 48 sec) 
Heartbeat CPU  0 instructions:  121000003 cycles:  122238484 heartbeat IPC: 0.52780 cumulative IPC: 0.40015 (Simulation time: 0 hr 3 min 50 sec) 
Heartbeat CPU  0 instructions:  122000003 cycles:  123996891 heartbeat IPC: 0.56870 cumulative IPC: 0.40561 (Simulation time: 0 hr 3 min 52 sec) 
Heartbeat CPU  0 instructions:  123000002 cycles:  125828108 heartbeat IPC: 0.54608 cumulative IPC: 0.41020 (Simulation time: 0 hr 3 min 54 sec) 
Heartbeat CPU  0 instructions:  124000000 cycles:  127726456 heartbeat IPC: 0.52677 cumulative IPC: 0.41402 (Simulation time: 0 hr 3 min 56 sec) 
Heartbeat CPU  0 instructions:  125000000 cycles:  129563234 heartbeat IPC: 0.54443 cumulative IPC: 0.41802 (Simulation time: 0 hr 3 min 59 sec) 
Heartbeat CPU  0 instructions:  126000002 cycles:  131334677 heartbeat IPC: 0.56451 cumulative IPC: 0.42224 (Simulation time: 0 hr 4 min 1 sec) 
Heartbeat CPU  0 instructions:  127000002 cycles:  133349604 heartbeat IPC: 0.49630 cumulative IPC: 0.42458 (Simulation time: 0 hr 4 min 3 sec) 
Heartbeat CPU  0 instructions:  128000000 cycles:  135235720 heartbeat IPC: 0.53019 cumulative IPC: 0.42763 (Simulation time: 0 hr 4 min 5 sec) 
Heartbeat CPU  0 instructions:  129000001 cycles:  136957278 heartbeat IPC: 0.58087 cumulative IPC: 0.43155 (Simulation time: 0 hr 4 min 7 sec) 
Heartbeat CPU  0 instructions:  130000000 cycles:  142460715 heartbeat IPC: 0.18170 cumulative IPC: 0.41264 (Simulation time: 0 hr 4 min 9 sec) 
Heartbeat CPU  0 instructions:  131000003 cycles:  154549809 heartbeat IPC: 0.08272 cumulative IPC: 0.36560 (Simulation time: 0 hr 4 min 11 sec) 
Heartbeat CPU  0 instructions:  132000000 cycles:  156311364 heartbeat IPC: 0.56768 cumulative IPC: 0.36971 (Simulation time: 0 hr 4 min 14 sec) 
Heartbeat CPU  0 instructions:  133000000 cycles:  158144919 heartbeat IPC: 0.54539 cumulative IPC: 0.37336 (Simulation time: 0 hr 4 min 16 sec) 
Heartbeat CPU  0 instructions:  134000000 cycles:  160042581 heartbeat IPC: 0.52696 cumulative IPC: 0.37659 (Simulation time: 0 hr 4 min 18 sec) 
Heartbeat CPU  0 instructions:  135000000 cycles:  161876567 heartbeat IPC: 0.54526 cumulative IPC: 0.37994 (Simulation time: 0 hr 4 min 20 sec) 
Heartbeat CPU  0 instructions:  136000000 cycles:  163635322 heartbeat IPC: 0.56858 cumulative IPC: 0.38348 (Simulation time: 0 hr 4 min 22 sec) 
Heartbeat CPU  0 instructions:  137000002 cycles:  165534095 heartbeat IPC: 0.52666 cumulative IPC: 0.38632 (Simulation time: 0 hr 4 min 24 sec) 
Heartbeat CPU  0 instructions:  138000001 cycles:  167422474 heartbeat IPC: 0.52955 cumulative IPC: 0.38909 (Simulation time: 0 hr 4 min 26 sec) 
Heartbeat CPU  0 instructions:  139000001 cycles:  169145082 heartbeat IPC: 0.58052 cumulative IPC: 0.39240 (Simulation time: 0 hr 4 min 28 sec) 
Heartbeat CPU  0 instructions:  140000000 cycles:  171031541 heartbeat IPC: 0.53009 cumulative IPC: 0.39497 (Simulation time: 0 hr 4 min 30 sec) 
Heartbeat CPU  0 instructions:  141000000 cycles:  172929763 heartbeat IPC: 0.52681 cumulative IPC: 0.39740 (Simulation time: 0 hr 4 min 32 sec) 
Heartbeat CPU  0 instructions:  142000001 cycles:  174704807 heartbeat IPC: 0.56337 cumulative IPC: 0.40020 (Simulation time: 0 hr 4 min 34 sec) 
Heartbeat CPU  0 instructions:  143000001 cycles:  176520988 heartbeat IPC: 0.55061 cumulative IPC: 0.40276 (Simulation time: 0 hr 4 min 37 sec) 
Heartbeat CPU  0 instructions:  144000000 cycles:  178420301 heartbeat IPC: 0.52651 cumulative IPC: 0.40492 (Simulation time: 0 hr 4 min 39 sec) 
Heartbeat CPU  0 instructions:  145000000 cycles:  180273957 heartbeat IPC: 0.53947 cumulative IPC: 0.40718 (Simulation time: 0 hr 4 min 41 sec) 
Heartbeat CPU  0 instructions:  146000002 cycles:  182018973 heartbeat IPC: 0.57306 cumulative IPC: 0.40976 (Simulation time: 0 hr 4 min 43 sec) 
Heartbeat CPU  0 instructions:  147000003 cycles:  183913046 heartbeat IPC: 0.52796 cumulative IPC: 0.41172 (Simulation time: 0 hr 4 min 45 sec) 
Heartbeat CPU  0 instructions:  148000000 cycles:  185802352 heartbeat IPC: 0.52929 cumulative IPC: 0.41363 (Simulation time: 0 hr 4 min 47 sec) 
Heartbeat CPU  0 instructions:  149000002 cycles:  187531887 heartbeat IPC: 0.57819 cumulative IPC: 0.41605 (Simulation time: 0 hr 4 min 49 sec) 
Heartbeat CPU  0 instructions:  150000003 cycles:  189404762 heartbeat IPC: 0.53394 cumulative IPC: 0.41790 (Simulation time: 0 hr 4 min 51 sec) 
Heartbeat CPU  0 instructions:  151000003 cycles:  191297562 heartbeat IPC: 0.52832 cumulative IPC: 0.41962 (Simulation time: 0 hr 4 min 53 sec) 
Heartbeat CPU  0 instructions:  152000000 cycles:  193103511 heartbeat IPC: 0.55372 cumulative IPC: 0.42158 (Simulation time: 0 hr 4 min 55 sec) 
Heartbeat CPU  0 instructions:  153000003 cycles:  205907465 heartbeat IPC: 0.07810 cumulative IPC: 0.38928 (Simulation time: 0 hr 4 min 58 sec) 
Heartbeat CPU  0 instructions:  154000000 cycles:  210836139 heartbeat IPC: 0.20289 cumulative IPC: 0.38277 (Simulation time: 0 hr 5 min 0 sec) 
Heartbeat CPU  0 instructions:  155000000 cycles:  212689080 heartbeat IPC: 0.53968 cumulative IPC: 0.38480 (Simulation time: 0 hr 5 min 2 sec) 
Heartbeat CPU  0 instructions:  156000000 cycles:  214430199 heartbeat IPC: 0.57434 cumulative IPC: 0.38708 (Simulation time: 0 hr 5 min 4 sec) 
Heartbeat CPU  0 instructions:  157000001 cycles:  216324586 heartbeat IPC: 0.52788 cumulative IPC: 0.38890 (Simulation time: 0 hr 5 min 6 sec) 
Heartbeat CPU  0 instructions:  158000001 cycles:  218215312 heartbeat IPC: 0.52890 cumulative IPC: 0.39068 (Simulation time: 0 hr 5 min 8 sec) 
Heartbeat CPU  0 instructions:  159000000 cycles:  219943493 heartbeat IPC: 0.57864 cumulative IPC: 0.39285 (Simulation time: 0 hr 5 min 10 sec) 
Heartbeat CPU  0 instructions:  160000000 cycles:  221819020 heartbeat IPC: 0.53318 cumulative IPC: 0.39458 (Simulation time: 0 hr 5 min 12 sec) 
Heartbeat CPU  0 instructions:  161000003 cycles:  223717379 heartbeat IPC: 0.52677 cumulative IPC: 0.39621 (Simulation time: 0 hr 5 min 14 sec) 
Heartbeat CPU  0 instructions:  162000000 cycles:  225510823 heartbeat IPC: 0.55758 cumulative IPC: 0.39807 (Simulation time: 0 hr 5 min 17 sec) 
Heartbeat CPU  0 instructions:  163000003 cycles:  227311745 heartbeat IPC: 0.55527 cumulative IPC: 0.39986 (Simulation time: 0 hr 5 min 19 sec) 
Heartbeat CPU  0 instructions:  164000000 cycles:  229206947 heartbeat IPC: 0.52765 cumulative IPC: 0.40138 (Simulation time: 0 hr 5 min 21 sec) 
Heartbeat CPU  0 instructions:  165000000 cycles:  231084757 heartbeat IPC: 0.53254 cumulative IPC: 0.40291 (Simulation time: 0 hr 5 min 23 sec) 
Heartbeat CPU  0 instructions:  166000001 cycles:  232810608 heartbeat IPC: 0.57942 cumulative IPC: 0.40478 (Simulation time: 0 hr 5 min 25 sec) 
Heartbeat CPU  0 instructions:  167000000 cycles:  234702178 heartbeat IPC: 0.52866 cumulative IPC: 0.40620 (Simulation time: 0 hr 5 min 27 sec) 
Heartbeat CPU  0 instructions:  168000000 cycles:  236596752 heartbeat IPC: 0.52782 cumulative IPC: 0.40758 (Simulation time: 0 hr 5 min 29 sec) 
Heartbeat CPU  0 instructions:  169000001 cycles:  238333685 heartbeat IPC: 0.57573 cumulative IPC: 0.40931 (Simulation time: 0 hr 5 min 31 sec) 
Heartbeat CPU  0 instructions:  170000002 cycles:  240191099 heartbeat IPC: 0.53838 cumulative IPC: 0.41072 (Simulation time: 0 hr 5 min 33 sec) 
Heartbeat CPU  0 instructions:  171000001 cycles:  242091568 heartbeat IPC: 0.52619 cumulative IPC: 0.41199 (Simulation time: 0 hr 5 min 35 sec) 
Heartbeat CPU  0 instructions:  172000000 cycles:  243902342 heartbeat IPC: 0.55225 cumulative IPC: 0.41345 (Simulation time: 0 hr 5 min 37 sec) 
Heartbeat CPU  0 instructions:  173000000 cycles:  245685399 heartbeat IPC: 0.56083 cumulative IPC: 0.41494 (Simulation time: 0 hr 5 min 39 sec) 
Heartbeat CPU  0 instructions:  174000003 cycles:  247583995 heartbeat IPC: 0.52671 cumulative IPC: 0.41614 (Simulation time: 0 hr 5 min 42 sec) 
Heartbeat CPU  0 instructions:  175000000 cycles:  254752738 heartbeat IPC: 0.13949 cumulative IPC: 0.40542 (Simulation time: 0 hr 5 min 44 sec) 
Heartbeat CPU  0 instructions:  176000000 cycles:  265016921 heartbeat IPC: 0.09743 cumulative IPC: 0.38923 (Simulation time: 0 hr 5 min 46 sec) 
Heartbeat CPU  0 instructions:  177000001 cycles:  266979556 heartbeat IPC: 0.50952 cumulative IPC: 0.39042 (Simulation time: 0 hr 5 min 48 sec) 
Heartbeat CPU  0 instructions:  178000003 cycles:  269026187 heartbeat IPC: 0.48861 cumulative IPC: 0.39143 (Simulation time: 0 hr 5 min 50 sec) 
Heartbeat CPU  0 instructions:  179000002 cycles:  270930742 heartbeat IPC: 0.52506 cumulative IPC: 0.39270 (Simulation time: 0 hr 5 min 52 sec) 
Heartbeat CPU  0 instructions:  180000000 cycles:  272815295 heartbeat IPC: 0.53063 cumulative IPC: 0.39398 (Simulation time: 0 hr 5 min 54 sec) 
Heartbeat CPU  0 instructions:  181000003 cycles:  274727471 heartbeat IPC: 0.52297 cumulative IPC: 0.39518 (Simulation time: 0 hr 5 min 57 sec) 
Heartbeat CPU  0 instructions:  182000003 cycles:  276555713 heartbeat IPC: 0.54697 cumulative IPC: 0.39652 (Simulation time: 0 hr 5 min 59 sec) 
Heartbeat CPU  0 instructions:  183000000 cycles:  278366320 heartbeat IPC: 0.55230 cumulative IPC: 0.39787 (Simulation time: 0 hr 6 min 1 sec) 
Heartbeat CPU  0 instructions:  184000000 cycles:  280277210 heartbeat IPC: 0.52332 cumulative IPC: 0.39901 (Simulation time: 0 hr 6 min 3 sec) 
Heartbeat CPU  0 instructions:  185000002 cycles:  282178166 heartbeat IPC: 0.52605 cumulative IPC: 0.40015 (Simulation time: 0 hr 6 min 5 sec) 
Heartbeat CPU  0 instructions:  186000001 cycles:  283939322 heartbeat IPC: 0.56781 cumulative IPC: 0.40153 (Simulation time: 0 hr 6 min 7 sec) 
Heartbeat CPU  0 instructions:  187000000 cycles:  285838848 heartbeat IPC: 0.52645 cumulative IPC: 0.40263 (Simulation time: 0 hr 6 min 9 sec) 
Heartbeat CPU  0 instructions:  188000000 cycles:  287750221 heartbeat IPC: 0.52318 cumulative IPC: 0.40368 (Simulation time: 0 hr 6 min 11 sec) 
Heartbeat CPU  0 instructions:  189000000 cycles:  289521929 heartbeat IPC: 0.56443 cumulative IPC: 0.40498 (Simulation time: 0 hr 6 min 13 sec) 
Heartbeat CPU  0 instructions:  190000000 cycles:  291389784 heartbeat IPC: 0.53537 cumulative IPC: 0.40608 (Simulation time: 0 hr 6 min 15 sec) 
Heartbeat CPU  0 instructions:  191000000 cycles:  293303026 heartbeat IPC: 0.52267 cumulative IPC: 0.40708 (Simulation time: 0 hr 6 min 18 sec) 
Heartbeat CPU  0 instructions:  192000000 cycles:  295147080 heartbeat IPC: 0.54228 cumulative IPC: 0.40818 (Simulation time: 0 hr 6 min 20 sec) 
Heartbeat CPU  0 instructions:  193000001 cycles:  296943706 heartbeat IPC: 0.55660 cumulative IPC: 0.40936 (Simulation time: 0 hr 6 min 22 sec) 
Heartbeat CPU  0 instructions:  194000000 cycles:  298856801 heartbeat IPC: 0.52271 cumulative IPC: 0.41030 (Simulation time: 0 hr 6 min 24 sec) 
Heartbeat CPU  0 instructions:  195000002 cycles:  300757248 heartbeat IPC: 0.52619 cumulative IPC: 0.41126 (Simulation time: 0 hr 6 min 26 sec) 
Heartbeat CPU  0 instructions:  196000000 cycles:  302512231 heartbeat IPC: 0.56980 cumulative IPC: 0.41245 (Simulation time: 0 hr 6 min 28 sec) 
Heartbeat CPU  0 instructions:  197000000 cycles:  304521529 heartbeat IPC: 0.49769 cumulative IPC: 0.41318 (Simulation time: 0 hr 6 min 30 sec) 
Heartbeat CPU  0 instructions:  198000003 cycles:  318819668 heartbeat IPC: 0.06994 cumulative IPC: 0.39348 (Simulation time: 0 hr 6 min 33 sec) 
Heartbeat CPU  0 instructions:  199000001 cycles:  321922538 heartbeat IPC: 0.32228 cumulative IPC: 0.39260 (Simulation time: 0 hr 6 min 35 sec) 
Heartbeat CPU  0 instructions:  200000000 cycles:  323794503 heartbeat IPC: 0.53420 cumulative IPC: 0.39364 (Simulation time: 0 hr 6 min 37 sec) 
Finished CPU 0 instructions: 100000000 cycles: 254036588 cumulative IPC: 0.39364 (Simulation time: 0 hr 6 min 37 sec) 

ChampSim completed all CPUs

[ROI Statistics]
Core_0_instructions 100000000
Core_0_cycles 254036588
Core_0_IPC 0.39364

Core_0_branch_prediction_accuracy 99.16976
Core_0_branch_MPKI 0.01138
Core_0_average_ROB_occupancy_at_mispredict 253.39455

Core_0_L1D_total_access 83742213
Core_0_L1D_total_hit 82897641
Core_0_L1D_total_miss 844572
Core_0_L1D_loads 34101672
Core_0_L1D_load_hit 34071303
Core_0_L1D_load_miss 30369
Core_0_L1D_RFOs 16680616
Core_0_L1D_RFO_hit 16516088
Core_0_L1D_RFO_miss 164528
Core_0_L1D_prefetches 32959925
Core_0_L1D_prefetch_hit 32310250
Core_0_L1D_prefetch_miss 649675
Core_0_L1D_writebacks 0
Core_0_L1D_writeback_hit 0
Core_0_L1D_writeback_miss 0
Core_0_L1D_prefetch_requested 81149899
Core_0_L1D_prefetch_issued 78622555
Core_0_L1D_prefetch_useful 1250489
Core_0_L1D_prefetch_useless 37788
Core_0_L1D_prefetch_late 1546
Core_0_L1D_average_miss_latency 373322.83704

Core_0_L1I_total_access 26514163
Core_0_L1I_total_hit 26514163
Core_0_L1I_total_miss 0
Core_0_L1I_loads 26514163
Core_0_L1I_load_hit 26514163
Core_0_L1I_load_miss 0
Core_0_L1I_RFOs 0
Core_0_L1I_RFO_hit 0
Core_0_L1I_RFO_miss 0
Core_0_L1I_prefetches 0
Core_0_L1I_prefetch_hit 0
Core_0_L1I_prefetch_miss 0
Core_0_L1I_writebacks 0
Core_0_L1I_writeback_hit 0
Core_0_L1I_writeback_miss 0
Core_0_L1I_prefetch_requested 0
Core_0_L1I_prefetch_issued 0
Core_0_L1I_prefetch_useful 0
Core_0_L1I_prefetch_useless 0
Core_0_L1I_prefetch_late 0
Core_0_L1I_average_miss_latency -nan

Core_0_L2C_total_access 2639587
Core_0_L2C_total_hit 2096002
Core_0_L2C_total_miss 543585
Core_0_L2C_loads 28854
Core_0_L2C_load_hit 22500
Core_0_L2C_load_miss 6354
Core_0_L2C_RFOs 164432
Core_0_L2C_RFO_hit 349
Core_0_L2C_RFO_miss 164083
Core_0_L2C_prefetches 2275958
Core_0_L2C_prefetch_hit 1903021
Core_0_L2C_prefetch_miss 372937
Core_0_L2C_writebacks 170343
Core_0_L2C_writeback_hit 170132
Core_0_L2C_writeback_miss 211
Core_0_L2C_prefetch_requested 3366738
Core_0_L2C_prefetch_issued 3223899
Core_0_L2C_prefetch_useful 14331
Core_0_L2C_prefetch_useless 705312
Core_0_L2C_prefetch_late 0
Core_0_L2C_average_miss_latency 299.02117

Core_0_LLC_total_access 714397
Core_0_LLC_total_hit 188685
Core_0_LLC_total_miss 525712
Core_0_LLC_loads 6354
Core_0_LLC_load_hit 429
Core_0_LLC_load_miss 5925
Core_0_LLC_RFOs 164083
Core_0_LLC_RFO_hit 534
Core_0_LLC_RFO_miss 163549
Core_0_LLC_prefetches 380059
Core_0_LLC_prefetch_hit 29397
Core_0_LLC_prefetch_miss 350662
Core_0_LLC_writebacks 163901
Core_0_LLC_writeback_hit 158325
Core_0_LLC_writeback_miss 5576
Core_0_LLC_prefetch_requested 0
Core_0_LLC_prefetch_issued 0
Core_0_LLC_prefetch_useful 552
Core_0_LLC_prefetch_useless 673623
Core_0_LLC_prefetch_late 0
Core_0_LLC_average_miss_latency 238.52568

Core_0_major_page_fault 0
Core_0_minor_page_fault 8761

CPU 0 L1D next line prefetcher final stats
CPU 0 L2C PC-based stride prefetcher final stats
Channel_0_RQ_row_buffer_hit 132575
Channel_0_RQ_row_buffer_miss 387560
Channel_0_WQ_row_buffer_hit 16760
Channel_0_WQ_row_buffer_miss 140821
Channel_0_WQ_full 0
Channel_0_dbus_congested 205401

avg_congested_cycle 10
