*************************************************
   ChampSim Multicore Out-of-Order Simulator
   Last compiled: Dec 22 2023 22:15:30
*************************************************

trace_0 ./test_trace/436.cactusADM-1804B.champsimtrace.xz
CPU 0 L1D next line prefetcher
Initialize DRRIP state
Assign rand_sets[0]: 454  LLC: 2048
rand_sets[0]: 454
Assign rand_sets[1]: 1662  LLC: 2048
rand_sets[1]: 1662
Assign rand_sets[2]: 1921  LLC: 2048
rand_sets[2]: 1921
Assign rand_sets[3]: 1131  LLC: 2048
rand_sets[3]: 1131
Assign rand_sets[4]: 331  LLC: 2048
rand_sets[4]: 331
Assign rand_sets[5]: 1531  LLC: 2048
rand_sets[5]: 1531
Assign rand_sets[6]: 482  LLC: 2048
rand_sets[6]: 482
Assign rand_sets[7]: 1275  LLC: 2048
rand_sets[7]: 1275
Assign rand_sets[8]: 1876  LLC: 2048
rand_sets[8]: 1876
Assign rand_sets[9]: 2038  LLC: 2048
rand_sets[9]: 2038
Assign rand_sets[10]: 701  LLC: 2048
rand_sets[10]: 701
Assign rand_sets[11]: 479  LLC: 2048
rand_sets[11]: 479
Assign rand_sets[12]: 892  LLC: 2048
rand_sets[12]: 892
Assign rand_sets[13]: 1820  LLC: 2048
rand_sets[13]: 1820
Assign rand_sets[14]: 1505  LLC: 2048
rand_sets[14]: 1505
Assign rand_sets[15]: 1159  LLC: 2048
rand_sets[15]: 1159
Assign rand_sets[16]: 513  LLC: 2048
rand_sets[16]: 513
Assign rand_sets[17]: 703  LLC: 2048
rand_sets[17]: 703
Assign rand_sets[18]: 561  LLC: 2048
rand_sets[18]: 561
Assign rand_sets[19]: 990  LLC: 2048
rand_sets[19]: 990
Assign rand_sets[20]: 342  LLC: 2048
rand_sets[20]: 342
Assign rand_sets[21]: 882  LLC: 2048
rand_sets[21]: 882
Assign rand_sets[22]: 15  LLC: 2048
rand_sets[22]: 15
Assign rand_sets[23]: 71  LLC: 2048
rand_sets[23]: 71
Assign rand_sets[24]: 1127  LLC: 2048
rand_sets[24]: 1127
Assign rand_sets[25]: 1382  LLC: 2048
rand_sets[25]: 1382
Assign rand_sets[26]: 647  LLC: 2048
rand_sets[26]: 647
Assign rand_sets[27]: 857  LLC: 2048
rand_sets[27]: 857
Assign rand_sets[28]: 1450  LLC: 2048
rand_sets[28]: 1450
Assign rand_sets[29]: 1160  LLC: 2048
rand_sets[29]: 1160
Assign rand_sets[30]: 1852  LLC: 2048
rand_sets[30]: 1852
Assign rand_sets[31]: 1881  LLC: 2048
rand_sets[31]: 1881
Assign rand_sets[32]: 1770  LLC: 2048
rand_sets[32]: 1770
Assign rand_sets[33]: 1622  LLC: 2048
rand_sets[33]: 1622
Assign rand_sets[34]: 275  LLC: 2048
rand_sets[34]: 275
Assign rand_sets[35]: 635  LLC: 2048
rand_sets[35]: 635
Assign rand_sets[36]: 466  LLC: 2048
rand_sets[36]: 466
Assign rand_sets[37]: 1413  LLC: 2048
rand_sets[37]: 1413
Assign rand_sets[38]: 417  LLC: 2048
rand_sets[38]: 417
Assign rand_sets[39]: 472  LLC: 2048
rand_sets[39]: 472
Assign rand_sets[40]: 1340  LLC: 2048
rand_sets[40]: 1340
Assign rand_sets[41]: 852  LLC: 2048
rand_sets[41]: 852
Assign rand_sets[42]: 1365  LLC: 2048
rand_sets[42]: 1365
Assign rand_sets[43]: 47  LLC: 2048
rand_sets[43]: 47
Assign rand_sets[44]: 823  LLC: 2048
rand_sets[44]: 823
Assign rand_sets[45]: 686  LLC: 2048
rand_sets[45]: 686
Assign rand_sets[46]: 1637  LLC: 2048
rand_sets[46]: 1637
Assign rand_sets[47]: 1115  LLC: 2048
rand_sets[47]: 1115
Assign rand_sets[48]: 986  LLC: 2048
rand_sets[48]: 986
Assign rand_sets[49]: 258  LLC: 2048
rand_sets[49]: 258
Assign rand_sets[50]: 633  LLC: 2048
rand_sets[50]: 633
Assign rand_sets[51]: 920  LLC: 2048
rand_sets[51]: 920
Assign rand_sets[52]: 204  LLC: 2048
rand_sets[52]: 204
Assign rand_sets[53]: 227  LLC: 2048
rand_sets[53]: 227
Assign rand_sets[54]: 1818  LLC: 2048
rand_sets[54]: 1818
Assign rand_sets[55]: 886  LLC: 2048
rand_sets[55]: 886
Assign rand_sets[56]: 1422  LLC: 2048
rand_sets[56]: 1422
Assign rand_sets[57]: 607  LLC: 2048
rand_sets[57]: 607
Assign rand_sets[58]: 217  LLC: 2048
rand_sets[58]: 217
Assign rand_sets[59]: 1945  LLC: 2048
rand_sets[59]: 1945
Assign rand_sets[60]: 143  LLC: 2048
rand_sets[60]: 143
Assign rand_sets[61]: 1311  LLC: 2048
rand_sets[61]: 1311
Assign rand_sets[62]: 319  LLC: 2048
rand_sets[62]: 319
Assign rand_sets[63]: 1846  LLC: 2048
rand_sets[63]: 1846
warmup_instructions 100000000
simulation_instructions 100000000
champsim_seed 271

num_cpus 1
cpu_freq 4000
dram_io_freq 2400
page_size 4096
block_size 64
max_read_per_cycle 8
max_fill_per_cycle 1
dram_channels 1
dram_ranks 1
dram_banks 8
dram_rows 65536
dram_columns 128
dram_row_size 8
dram_size 4096
dram_pages 1048576

fetch_width 6
decode_width 6
exec_width 4
lq_width 2
sq_width 2
retire_width 4
scheduler_size 128
branch_mispredict_penalty 20
rob_size 256
lq_size 72
sq_size 56
num_instr_destinations_sparc 4
num_instr_destinations 2
num_instr_sources 4

itlb_set 16
itlb_way 8
itlb_rq_size 16
itlb_wq_size 16
itlb_pq_size 0
itlb_mshr_size 8
itlb_latency 1

dtlb_set 16
dtlb_way 4
dtlb_rq_size 16
dtlb_wq_size 16
dtlb_pq_size 0
dtlb_mshr_size 8
dtlb_latency 1

stlb_set 128
stlb_way 12
stlb_rq_size 32
stlb_wq_size 32
stlb_pq_size 0
stlb_mshr_size 16
stlb_latency 8

l1i_size 32
l1i_set 64
l1i_way 8
l1i_rq_size 64
l1i_wq_size 64
l1i_pq_size 8
l1i_mshr_size 8
l1i_latency 1

l1d_size 32
l1d_set 64
l1d_way 8
l1d_rq_size 64
l1d_wq_size 64
l1d_pq_size 8
l1d_mshr_size 16
l1d_latency 4

l2c_size 512
l2c_set 1024
l2c_way 8
l2c_rq_size 32
l2c_wq_size 32
l2c_pq_size 16
l2c_mshr_size 32
l2c_latency 10

llc_size 2048
llc_set 2048
llc_way 16
llc_rq_size 32
llc_wq_size 32
llc_pq_size 32
llc_mshr_size 64
llc_latency 20

dram_channel_width 8
dram_wq_size 64
dram_rq_size 64
tRP 15
tRCD 15
tCAS 12.5
dram_dbus_turn_around_time 30
dram_write_high_wm 56
dram_write_low_wm 48
min_dram_writes_per_switch 16
dram_mtps 2400
dram_dbus_return_time 13


Heartbeat CPU  0 instructions:    1000000 cycles:     702169 heartbeat IPC: 1.42416 cumulative IPC: 1.42416 (Simulation time: 0 hr 0 min 2 sec) 
Heartbeat CPU  0 instructions:    2000000 cycles:    1404110 heartbeat IPC: 1.42462 cumulative IPC: 1.42439 (Simulation time: 0 hr 0 min 4 sec) 
Heartbeat CPU  0 instructions:    3000000 cycles:    2106264 heartbeat IPC: 1.42419 cumulative IPC: 1.42432 (Simulation time: 0 hr 0 min 6 sec) 
Heartbeat CPU  0 instructions:    4000000 cycles:    2808416 heartbeat IPC: 1.42419 cumulative IPC: 1.42429 (Simulation time: 0 hr 0 min 7 sec) 
Heartbeat CPU  0 instructions:    5000000 cycles:    3510330 heartbeat IPC: 1.42468 cumulative IPC: 1.42437 (Simulation time: 0 hr 0 min 9 sec) 
Heartbeat CPU  0 instructions:    6000000 cycles:    4212453 heartbeat IPC: 1.42425 cumulative IPC: 1.42435 (Simulation time: 0 hr 0 min 11 sec) 
Heartbeat CPU  0 instructions:    7000001 cycles:    4914710 heartbeat IPC: 1.42398 cumulative IPC: 1.42430 (Simulation time: 0 hr 0 min 13 sec) 
Heartbeat CPU  0 instructions:    8000000 cycles:    5616540 heartbeat IPC: 1.42485 cumulative IPC: 1.42436 (Simulation time: 0 hr 0 min 15 sec) 
Heartbeat CPU  0 instructions:    9000001 cycles:    6318774 heartbeat IPC: 1.42403 cumulative IPC: 1.42433 (Simulation time: 0 hr 0 min 17 sec) 
Heartbeat CPU  0 instructions:   10000000 cycles:    7020818 heartbeat IPC: 1.42441 cumulative IPC: 1.42434 (Simulation time: 0 hr 0 min 18 sec) 
Heartbeat CPU  0 instructions:   11000002 cycles:    7722797 heartbeat IPC: 1.42455 cumulative IPC: 1.42435 (Simulation time: 0 hr 0 min 20 sec) 
Heartbeat CPU  0 instructions:   12000000 cycles:    8424735 heartbeat IPC: 1.42462 cumulative IPC: 1.42438 (Simulation time: 0 hr 0 min 22 sec) 
Heartbeat CPU  0 instructions:   13000000 cycles:    9127079 heartbeat IPC: 1.42380 cumulative IPC: 1.42433 (Simulation time: 0 hr 0 min 24 sec) 
Heartbeat CPU  0 instructions:   14000002 cycles:    9829155 heartbeat IPC: 1.42435 cumulative IPC: 1.42433 (Simulation time: 0 hr 0 min 26 sec) 
Heartbeat CPU  0 instructions:   15000002 cycles:   10530862 heartbeat IPC: 1.42510 cumulative IPC: 1.42439 (Simulation time: 0 hr 0 min 28 sec) 
Heartbeat CPU  0 instructions:   16000000 cycles:   11233266 heartbeat IPC: 1.42368 cumulative IPC: 1.42434 (Simulation time: 0 hr 0 min 29 sec) 
Heartbeat CPU  0 instructions:   17000000 cycles:   11935599 heartbeat IPC: 1.42383 cumulative IPC: 1.42431 (Simulation time: 0 hr 0 min 31 sec) 
Heartbeat CPU  0 instructions:   18000001 cycles:   12594637 heartbeat IPC: 1.51736 cumulative IPC: 1.42918 (Simulation time: 0 hr 0 min 33 sec) 
Heartbeat CPU  0 instructions:   19000000 cycles:   13226879 heartbeat IPC: 1.58167 cumulative IPC: 1.43647 (Simulation time: 0 hr 0 min 35 sec) 
Heartbeat CPU  0 instructions:   20000000 cycles:   13929156 heartbeat IPC: 1.42394 cumulative IPC: 1.43584 (Simulation time: 0 hr 0 min 37 sec) 
Heartbeat CPU  0 instructions:   21000000 cycles:   14631340 heartbeat IPC: 1.42413 cumulative IPC: 1.43528 (Simulation time: 0 hr 0 min 39 sec) 
Heartbeat CPU  0 instructions:   22000002 cycles:   15333380 heartbeat IPC: 1.42442 cumulative IPC: 1.43478 (Simulation time: 0 hr 0 min 41 sec) 
Heartbeat CPU  0 instructions:   23000001 cycles:   16035525 heartbeat IPC: 1.42421 cumulative IPC: 1.43432 (Simulation time: 0 hr 0 min 43 sec) 
Heartbeat CPU  0 instructions:   24000000 cycles:   16737393 heartbeat IPC: 1.42477 cumulative IPC: 1.43392 (Simulation time: 0 hr 0 min 45 sec) 
Heartbeat CPU  0 instructions:   25000001 cycles:   17439515 heartbeat IPC: 1.42426 cumulative IPC: 1.43353 (Simulation time: 0 hr 0 min 46 sec) 
Heartbeat CPU  0 instructions:   26000003 cycles:   18141843 heartbeat IPC: 1.42384 cumulative IPC: 1.43315 (Simulation time: 0 hr 0 min 48 sec) 
Heartbeat CPU  0 instructions:   27000003 cycles:   18843813 heartbeat IPC: 1.42456 cumulative IPC: 1.43283 (Simulation time: 0 hr 0 min 50 sec) 
Heartbeat CPU  0 instructions:   28000000 cycles:   19545770 heartbeat IPC: 1.42458 cumulative IPC: 1.43254 (Simulation time: 0 hr 0 min 52 sec) 
Heartbeat CPU  0 instructions:   29000000 cycles:   20247976 heartbeat IPC: 1.42408 cumulative IPC: 1.43224 (Simulation time: 0 hr 0 min 54 sec) 
Heartbeat CPU  0 instructions:   30000003 cycles:   20950104 heartbeat IPC: 1.42425 cumulative IPC: 1.43197 (Simulation time: 0 hr 0 min 56 sec) 
Heartbeat CPU  0 instructions:   31000003 cycles:   21651797 heartbeat IPC: 1.42512 cumulative IPC: 1.43175 (Simulation time: 0 hr 0 min 58 sec) 
Heartbeat CPU  0 instructions:   32000000 cycles:   22353683 heartbeat IPC: 1.42473 cumulative IPC: 1.43153 (Simulation time: 0 hr 1 min 0 sec) 
Heartbeat CPU  0 instructions:   33000001 cycles:   23056179 heartbeat IPC: 1.42350 cumulative IPC: 1.43129 (Simulation time: 0 hr 1 min 2 sec) 
Heartbeat CPU  0 instructions:   34000000 cycles:   23758149 heartbeat IPC: 1.42456 cumulative IPC: 1.43109 (Simulation time: 0 hr 1 min 4 sec) 
Heartbeat CPU  0 instructions:   35000001 cycles:   24460047 heartbeat IPC: 1.42471 cumulative IPC: 1.43090 (Simulation time: 0 hr 1 min 6 sec) 
Heartbeat CPU  0 instructions:   36000000 cycles:   25162027 heartbeat IPC: 1.42454 cumulative IPC: 1.43073 (Simulation time: 0 hr 1 min 8 sec) 
Heartbeat CPU  0 instructions:   37000000 cycles:   25864394 heartbeat IPC: 1.42376 cumulative IPC: 1.43054 (Simulation time: 0 hr 1 min 10 sec) 
Heartbeat CPU  0 instructions:   38000001 cycles:   26566389 heartbeat IPC: 1.42451 cumulative IPC: 1.43038 (Simulation time: 0 hr 1 min 12 sec) 
Heartbeat CPU  0 instructions:   39000000 cycles:   27268322 heartbeat IPC: 1.42464 cumulative IPC: 1.43023 (Simulation time: 0 hr 1 min 14 sec) 
Heartbeat CPU  0 instructions:   40000000 cycles:   27970310 heartbeat IPC: 1.42453 cumulative IPC: 1.43009 (Simulation time: 0 hr 1 min 16 sec) 
Heartbeat CPU  0 instructions:   41000000 cycles:   28571327 heartbeat IPC: 1.66385 cumulative IPC: 1.43501 (Simulation time: 0 hr 1 min 18 sec) 
Heartbeat CPU  0 instructions:   42000002 cycles:   29261979 heartbeat IPC: 1.44791 cumulative IPC: 1.43531 (Simulation time: 0 hr 1 min 19 sec) 
Heartbeat CPU  0 instructions:   43000002 cycles:   29964151 heartbeat IPC: 1.42415 cumulative IPC: 1.43505 (Simulation time: 0 hr 1 min 21 sec) 
Heartbeat CPU  0 instructions:   44000000 cycles:   30666279 heartbeat IPC: 1.42424 cumulative IPC: 1.43480 (Simulation time: 0 hr 1 min 23 sec) 
Heartbeat CPU  0 instructions:   45000003 cycles:   31368296 heartbeat IPC: 1.42447 cumulative IPC: 1.43457 (Simulation time: 0 hr 1 min 25 sec) 
Heartbeat CPU  0 instructions:   46000003 cycles:   32070226 heartbeat IPC: 1.42464 cumulative IPC: 1.43435 (Simulation time: 0 hr 1 min 27 sec) 
Heartbeat CPU  0 instructions:   47000000 cycles:   32772189 heartbeat IPC: 1.42457 cumulative IPC: 1.43414 (Simulation time: 0 hr 1 min 29 sec) 
Heartbeat CPU  0 instructions:   48000000 cycles:   33474535 heartbeat IPC: 1.42380 cumulative IPC: 1.43393 (Simulation time: 0 hr 1 min 31 sec) 
Heartbeat CPU  0 instructions:   49000000 cycles:   34176301 heartbeat IPC: 1.42498 cumulative IPC: 1.43374 (Simulation time: 0 hr 1 min 33 sec) 
Heartbeat CPU  0 instructions:   50000000 cycles:   34878398 heartbeat IPC: 1.42430 cumulative IPC: 1.43355 (Simulation time: 0 hr 1 min 35 sec) 
Heartbeat CPU  0 instructions:   51000000 cycles:   35580679 heartbeat IPC: 1.42393 cumulative IPC: 1.43336 (Simulation time: 0 hr 1 min 37 sec) 
Heartbeat CPU  0 instructions:   52000000 cycles:   36282574 heartbeat IPC: 1.42471 cumulative IPC: 1.43319 (Simulation time: 0 hr 1 min 39 sec) 
Heartbeat CPU  0 instructions:   53000000 cycles:   36984692 heartbeat IPC: 1.42426 cumulative IPC: 1.43303 (Simulation time: 0 hr 1 min 41 sec) 
Heartbeat CPU  0 instructions:   54000001 cycles:   37686535 heartbeat IPC: 1.42482 cumulative IPC: 1.43287 (Simulation time: 0 hr 1 min 43 sec) 
Heartbeat CPU  0 instructions:   55000001 cycles:   38388583 heartbeat IPC: 1.42440 cumulative IPC: 1.43272 (Simulation time: 0 hr 1 min 45 sec) 
Heartbeat CPU  0 instructions:   56000000 cycles:   39090803 heartbeat IPC: 1.42405 cumulative IPC: 1.43256 (Simulation time: 0 hr 1 min 47 sec) 
Heartbeat CPU  0 instructions:   57000000 cycles:   39793023 heartbeat IPC: 1.42406 cumulative IPC: 1.43241 (Simulation time: 0 hr 1 min 49 sec) 
Heartbeat CPU  0 instructions:   58000003 cycles:   40495044 heartbeat IPC: 1.42446 cumulative IPC: 1.43227 (Simulation time: 0 hr 1 min 50 sec) 
Heartbeat CPU  0 instructions:   59000000 cycles:   41196939 heartbeat IPC: 1.42471 cumulative IPC: 1.43215 (Simulation time: 0 hr 1 min 52 sec) 
Heartbeat CPU  0 instructions:   60000000 cycles:   41899160 heartbeat IPC: 1.42405 cumulative IPC: 1.43201 (Simulation time: 0 hr 1 min 54 sec) 
Heartbeat CPU  0 instructions:   61000000 cycles:   42601103 heartbeat IPC: 1.42462 cumulative IPC: 1.43189 (Simulation time: 0 hr 1 min 56 sec) 
Heartbeat CPU  0 instructions:   62000002 cycles:   43303041 heartbeat IPC: 1.42463 cumulative IPC: 1.43177 (Simulation time: 0 hr 1 min 58 sec) 
Heartbeat CPU  0 instructions:   63000000 cycles:   43947846 heartbeat IPC: 1.55085 cumulative IPC: 1.43352 (Simulation time: 0 hr 2 min 0 sec) 
Heartbeat CPU  0 instructions:   64000000 cycles:   44596547 heartbeat IPC: 1.54154 cumulative IPC: 1.43509 (Simulation time: 0 hr 2 min 2 sec) 
Heartbeat CPU  0 instructions:   65000000 cycles:   45298427 heartbeat IPC: 1.42474 cumulative IPC: 1.43493 (Simulation time: 0 hr 2 min 3 sec) 
Heartbeat CPU  0 instructions:   66000001 cycles:   46000240 heartbeat IPC: 1.42488 cumulative IPC: 1.43478 (Simulation time: 0 hr 2 min 5 sec) 
Heartbeat CPU  0 instructions:   67000002 cycles:   46702136 heartbeat IPC: 1.42471 cumulative IPC: 1.43462 (Simulation time: 0 hr 2 min 7 sec) 
Heartbeat CPU  0 instructions:   68000000 cycles:   47404303 heartbeat IPC: 1.42416 cumulative IPC: 1.43447 (Simulation time: 0 hr 2 min 9 sec) 
Heartbeat CPU  0 instructions:   69000000 cycles:   48106330 heartbeat IPC: 1.42445 cumulative IPC: 1.43432 (Simulation time: 0 hr 2 min 11 sec) 
Heartbeat CPU  0 instructions:   70000002 cycles:   48808247 heartbeat IPC: 1.42467 cumulative IPC: 1.43418 (Simulation time: 0 hr 2 min 13 sec) 
Heartbeat CPU  0 instructions:   71000003 cycles:   49510610 heartbeat IPC: 1.42377 cumulative IPC: 1.43404 (Simulation time: 0 hr 2 min 15 sec) 
Heartbeat CPU  0 instructions:   72000000 cycles:   50212494 heartbeat IPC: 1.42473 cumulative IPC: 1.43391 (Simulation time: 0 hr 2 min 16 sec) 
Heartbeat CPU  0 instructions:   73000001 cycles:   50914404 heartbeat IPC: 1.42469 cumulative IPC: 1.43378 (Simulation time: 0 hr 2 min 18 sec) 
Heartbeat CPU  0 instructions:   74000003 cycles:   51616509 heartbeat IPC: 1.42429 cumulative IPC: 1.43365 (Simulation time: 0 hr 2 min 20 sec) 
Heartbeat CPU  0 instructions:   75000002 cycles:   52318957 heartbeat IPC: 1.42359 cumulative IPC: 1.43351 (Simulation time: 0 hr 2 min 22 sec) 
Heartbeat CPU  0 instructions:   76000000 cycles:   53020906 heartbeat IPC: 1.42460 cumulative IPC: 1.43340 (Simulation time: 0 hr 2 min 24 sec) 
Heartbeat CPU  0 instructions:   77000003 cycles:   53723300 heartbeat IPC: 1.42371 cumulative IPC: 1.43327 (Simulation time: 0 hr 2 min 26 sec) 
Heartbeat CPU  0 instructions:   78000001 cycles:   54425629 heartbeat IPC: 1.42383 cumulative IPC: 1.43315 (Simulation time: 0 hr 2 min 28 sec) 
Heartbeat CPU  0 instructions:   79000001 cycles:   55127302 heartbeat IPC: 1.42517 cumulative IPC: 1.43305 (Simulation time: 0 hr 2 min 30 sec) 
Heartbeat CPU  0 instructions:   80000000 cycles:   55829134 heartbeat IPC: 1.42484 cumulative IPC: 1.43294 (Simulation time: 0 hr 2 min 31 sec) 
Heartbeat CPU  0 instructions:   81000002 cycles:   56531279 heartbeat IPC: 1.42421 cumulative IPC: 1.43284 (Simulation time: 0 hr 2 min 33 sec) 
Heartbeat CPU  0 instructions:   82000003 cycles:   57233295 heartbeat IPC: 1.42447 cumulative IPC: 1.43273 (Simulation time: 0 hr 2 min 35 sec) 
Heartbeat CPU  0 instructions:   83000001 cycles:   57935358 heartbeat IPC: 1.42437 cumulative IPC: 1.43263 (Simulation time: 0 hr 2 min 37 sec) 
Heartbeat CPU  0 instructions:   84000000 cycles:   58637333 heartbeat IPC: 1.42455 cumulative IPC: 1.43253 (Simulation time: 0 hr 2 min 39 sec) 
Heartbeat CPU  0 instructions:   85000000 cycles:   59325232 heartbeat IPC: 1.45370 cumulative IPC: 1.43278 (Simulation time: 0 hr 2 min 41 sec) 
Heartbeat CPU  0 instructions:   86000002 cycles:   59930125 heartbeat IPC: 1.65319 cumulative IPC: 1.43500 (Simulation time: 0 hr 2 min 42 sec) 
Heartbeat CPU  0 instructions:   87000002 cycles:   60632371 heartbeat IPC: 1.42400 cumulative IPC: 1.43488 (Simulation time: 0 hr 2 min 44 sec) 
Heartbeat CPU  0 instructions:   88000000 cycles:   61334712 heartbeat IPC: 1.42381 cumulative IPC: 1.43475 (Simulation time: 0 hr 2 min 46 sec) 
Heartbeat CPU  0 instructions:   89000001 cycles:   62036519 heartbeat IPC: 1.42489 cumulative IPC: 1.43464 (Simulation time: 0 hr 2 min 48 sec) 
Heartbeat CPU  0 instructions:   90000003 cycles:   62738645 heartbeat IPC: 1.42425 cumulative IPC: 1.43452 (Simulation time: 0 hr 2 min 50 sec) 
Heartbeat CPU  0 instructions:   91000003 cycles:   63440811 heartbeat IPC: 1.42416 cumulative IPC: 1.43441 (Simulation time: 0 hr 2 min 52 sec) 
Heartbeat CPU  0 instructions:   92000000 cycles:   64142759 heartbeat IPC: 1.42460 cumulative IPC: 1.43430 (Simulation time: 0 hr 2 min 54 sec) 
Heartbeat CPU  0 instructions:   93000002 cycles:   64844801 heartbeat IPC: 1.42442 cumulative IPC: 1.43419 (Simulation time: 0 hr 2 min 56 sec) 
Heartbeat CPU  0 instructions:   94000002 cycles:   65546620 heartbeat IPC: 1.42487 cumulative IPC: 1.43409 (Simulation time: 0 hr 2 min 57 sec) 
Heartbeat CPU  0 instructions:   95000003 cycles:   66248551 heartbeat IPC: 1.42464 cumulative IPC: 1.43399 (Simulation time: 0 hr 2 min 59 sec) 
Heartbeat CPU  0 instructions:   96000000 cycles:   66950626 heartbeat IPC: 1.42435 cumulative IPC: 1.43389 (Simulation time: 0 hr 3 min 1 sec) 
Heartbeat CPU  0 instructions:   97000000 cycles:   67652732 heartbeat IPC: 1.42429 cumulative IPC: 1.43379 (Simulation time: 0 hr 3 min 3 sec) 
Heartbeat CPU  0 instructions:   98000002 cycles:   68354658 heartbeat IPC: 1.42465 cumulative IPC: 1.43370 (Simulation time: 0 hr 3 min 5 sec) 
Heartbeat CPU  0 instructions:   99000003 cycles:   69056645 heartbeat IPC: 1.42453 cumulative IPC: 1.43361 (Simulation time: 0 hr 3 min 7 sec) 
Heartbeat CPU  0 instructions:  100000000 cycles:   69758814 heartbeat IPC: 1.42415 cumulative IPC: 1.43351 (Simulation time: 0 hr 3 min 9 sec) 

Warmup complete CPU  0 instructions:  100000001 cycles:   69758834 (Simulation time: 0 hr 3 min 9 sec) 

Heartbeat CPU  0 instructions:  101000000 cycles:   71661284 heartbeat IPC: 0.52563 cumulative IPC: 0.52564 (Simulation time: 0 hr 3 min 11 sec) 
Heartbeat CPU  0 instructions:  102000003 cycles:   73395237 heartbeat IPC: 0.57672 cumulative IPC: 0.54999 (Simulation time: 0 hr 3 min 13 sec) 
Heartbeat CPU  0 instructions:  103000003 cycles:   75239468 heartbeat IPC: 0.54223 cumulative IPC: 0.54738 (Simulation time: 0 hr 3 min 15 sec) 
Heartbeat CPU  0 instructions:  104000000 cycles:   77131464 heartbeat IPC: 0.52854 cumulative IPC: 0.54255 (Simulation time: 0 hr 3 min 17 sec) 
Heartbeat CPU  0 instructions:  105000002 cycles:   78944749 heartbeat IPC: 0.55149 cumulative IPC: 0.54431 (Simulation time: 0 hr 3 min 19 sec) 
Heartbeat CPU  0 instructions:  106000000 cycles:   80718525 heartbeat IPC: 0.56377 cumulative IPC: 0.54746 (Simulation time: 0 hr 3 min 22 sec) 
Heartbeat CPU  0 instructions:  107000003 cycles:   82606048 heartbeat IPC: 0.52980 cumulative IPC: 0.54487 (Simulation time: 0 hr 3 min 24 sec) 
Heartbeat CPU  0 instructions:  108000000 cycles:   93369787 heartbeat IPC: 0.09290 cumulative IPC: 0.33883 (Simulation time: 0 hr 3 min 26 sec) 
Heartbeat CPU  0 instructions:  109000003 cycles:  100150466 heartbeat IPC: 0.14748 cumulative IPC: 0.29613 (Simulation time: 0 hr 3 min 29 sec) 
Heartbeat CPU  0 instructions:  110000001 cycles:  102036031 heartbeat IPC: 0.53034 cumulative IPC: 0.30982 (Simulation time: 0 hr 3 min 31 sec) 
Heartbeat CPU  0 instructions:  111000000 cycles:  103930141 heartbeat IPC: 0.52795 cumulative IPC: 0.32191 (Simulation time: 0 hr 3 min 33 sec) 
Heartbeat CPU  0 instructions:  112000000 cycles:  105674148 heartbeat IPC: 0.57339 cumulative IPC: 0.33412 (Simulation time: 0 hr 3 min 35 sec) 
Heartbeat CPU  0 instructions:  113000000 cycles:  107520124 heartbeat IPC: 0.54172 cumulative IPC: 0.34427 (Simulation time: 0 hr 3 min 37 sec) 
Heartbeat CPU  0 instructions:  114000000 cycles:  109423760 heartbeat IPC: 0.52531 cumulative IPC: 0.35296 (Simulation time: 0 hr 3 min 39 sec) 
Heartbeat CPU  0 instructions:  115000001 cycles:  111235639 heartbeat IPC: 0.55191 cumulative IPC: 0.36165 (Simulation time: 0 hr 3 min 42 sec) 
Heartbeat CPU  0 instructions:  116000000 cycles:  113007940 heartbeat IPC: 0.56424 cumulative IPC: 0.36995 (Simulation time: 0 hr 3 min 44 sec) 
Heartbeat CPU  0 instructions:  117000003 cycles:  114902728 heartbeat IPC: 0.52777 cumulative IPC: 0.37657 (Simulation time: 0 hr 3 min 46 sec) 
Heartbeat CPU  0 instructions:  118000002 cycles:  116782210 heartbeat IPC: 0.53206 cumulative IPC: 0.38279 (Simulation time: 0 hr 3 min 48 sec) 
Heartbeat CPU  0 instructions:  119000002 cycles:  118504989 heartbeat IPC: 0.58046 cumulative IPC: 0.38977 (Simulation time: 0 hr 3 min 50 sec) 
Heartbeat CPU  0 instructions:  120000000 cycles:  120386540 heartbeat IPC: 0.53148 cumulative IPC: 0.39504 (Simulation time: 0 hr 3 min 52 sec) 
Heartbeat CPU  0 instructions:  121000003 cycles:  122278916 heartbeat IPC: 0.52844 cumulative IPC: 0.39985 (Simulation time: 0 hr 3 min 54 sec) 
Heartbeat CPU  0 instructions:  122000003 cycles:  124034532 heartbeat IPC: 0.56960 cumulative IPC: 0.40534 (Simulation time: 0 hr 3 min 56 sec) 
Heartbeat CPU  0 instructions:  123000002 cycles:  125863366 heartbeat IPC: 0.54680 cumulative IPC: 0.40995 (Simulation time: 0 hr 3 min 58 sec) 
Heartbeat CPU  0 instructions:  124000000 cycles:  127759652 heartbeat IPC: 0.52735 cumulative IPC: 0.41379 (Simulation time: 0 hr 4 min 1 sec) 
Heartbeat CPU  0 instructions:  125000000 cycles:  129593852 heartbeat IPC: 0.54520 cumulative IPC: 0.41782 (Simulation time: 0 hr 4 min 3 sec) 
Heartbeat CPU  0 instructions:  126000002 cycles:  131362965 heartbeat IPC: 0.56526 cumulative IPC: 0.42205 (Simulation time: 0 hr 4 min 5 sec) 
Heartbeat CPU  0 instructions:  127000002 cycles:  133375813 heartbeat IPC: 0.49681 cumulative IPC: 0.42442 (Simulation time: 0 hr 4 min 7 sec) 
Heartbeat CPU  0 instructions:  128000000 cycles:  135259475 heartbeat IPC: 0.53088 cumulative IPC: 0.42748 (Simulation time: 0 hr 4 min 10 sec) 
Heartbeat CPU  0 instructions:  129000001 cycles:  136977341 heartbeat IPC: 0.58212 cumulative IPC: 0.43143 (Simulation time: 0 hr 4 min 12 sec) 
Heartbeat CPU  0 instructions:  130000000 cycles:  142478438 heartbeat IPC: 0.18178 cumulative IPC: 0.41254 (Simulation time: 0 hr 4 min 14 sec) 
Heartbeat CPU  0 instructions:  131000003 cycles:  154620335 heartbeat IPC: 0.08236 cumulative IPC: 0.36530 (Simulation time: 0 hr 4 min 17 sec) 
Heartbeat CPU  0 instructions:  132000000 cycles:  156380216 heartbeat IPC: 0.56822 cumulative IPC: 0.36942 (Simulation time: 0 hr 4 min 19 sec) 
Heartbeat CPU  0 instructions:  133000000 cycles:  158212346 heartbeat IPC: 0.54581 cumulative IPC: 0.37308 (Simulation time: 0 hr 4 min 21 sec) 
Heartbeat CPU  0 instructions:  134000000 cycles:  160108715 heartbeat IPC: 0.52732 cumulative IPC: 0.37631 (Simulation time: 0 hr 4 min 23 sec) 
Heartbeat CPU  0 instructions:  135000000 cycles:  161942268 heartbeat IPC: 0.54539 cumulative IPC: 0.37968 (Simulation time: 0 hr 4 min 25 sec) 
Heartbeat CPU  0 instructions:  136000000 cycles:  163699697 heartbeat IPC: 0.56901 cumulative IPC: 0.38322 (Simulation time: 0 hr 4 min 27 sec) 
Heartbeat CPU  0 instructions:  137000002 cycles:  165596346 heartbeat IPC: 0.52725 cumulative IPC: 0.38607 (Simulation time: 0 hr 4 min 29 sec) 
Heartbeat CPU  0 instructions:  138000001 cycles:  167483134 heartbeat IPC: 0.53000 cumulative IPC: 0.38885 (Simulation time: 0 hr 4 min 32 sec) 
Heartbeat CPU  0 instructions:  139000001 cycles:  169202939 heartbeat IPC: 0.58146 cumulative IPC: 0.39218 (Simulation time: 0 hr 4 min 34 sec) 
Heartbeat CPU  0 instructions:  140000000 cycles:  171086860 heartbeat IPC: 0.53081 cumulative IPC: 0.39476 (Simulation time: 0 hr 4 min 36 sec) 
Heartbeat CPU  0 instructions:  141000000 cycles:  172982417 heartbeat IPC: 0.52755 cumulative IPC: 0.39720 (Simulation time: 0 hr 4 min 38 sec) 
Heartbeat CPU  0 instructions:  142000001 cycles:  174754403 heartbeat IPC: 0.56434 cumulative IPC: 0.40002 (Simulation time: 0 hr 4 min 40 sec) 
Heartbeat CPU  0 instructions:  143000001 cycles:  176566702 heartbeat IPC: 0.55179 cumulative IPC: 0.40259 (Simulation time: 0 hr 4 min 42 sec) 
Heartbeat CPU  0 instructions:  144000000 cycles:  178464159 heartbeat IPC: 0.52702 cumulative IPC: 0.40476 (Simulation time: 0 hr 4 min 45 sec) 
Heartbeat CPU  0 instructions:  145000000 cycles:  180315814 heartbeat IPC: 0.54006 cumulative IPC: 0.40703 (Simulation time: 0 hr 4 min 47 sec) 
Heartbeat CPU  0 instructions:  146000002 cycles:  182056623 heartbeat IPC: 0.57445 cumulative IPC: 0.40963 (Simulation time: 0 hr 4 min 49 sec) 
Heartbeat CPU  0 instructions:  147000003 cycles:  183949742 heartbeat IPC: 0.52823 cumulative IPC: 0.41159 (Simulation time: 0 hr 4 min 51 sec) 
Heartbeat CPU  0 instructions:  148000000 cycles:  185835723 heartbeat IPC: 0.53023 cumulative IPC: 0.41352 (Simulation time: 0 hr 4 min 53 sec) 
Heartbeat CPU  0 instructions:  149000002 cycles:  187561894 heartbeat IPC: 0.57932 cumulative IPC: 0.41595 (Simulation time: 0 hr 4 min 55 sec) 
Heartbeat CPU  0 instructions:  150000003 cycles:  189431312 heartbeat IPC: 0.53493 cumulative IPC: 0.41781 (Simulation time: 0 hr 4 min 57 sec) 
Heartbeat CPU  0 instructions:  151000003 cycles:  191321508 heartbeat IPC: 0.52905 cumulative IPC: 0.41954 (Simulation time: 0 hr 4 min 59 sec) 
Heartbeat CPU  0 instructions:  152000000 cycles:  193123141 heartbeat IPC: 0.55505 cumulative IPC: 0.42152 (Simulation time: 0 hr 5 min 2 sec) 
Heartbeat CPU  0 instructions:  153000003 cycles:  205913275 heartbeat IPC: 0.07819 cumulative IPC: 0.38926 (Simulation time: 0 hr 5 min 4 sec) 
Heartbeat CPU  0 instructions:  154000000 cycles:  210835182 heartbeat IPC: 0.20317 cumulative IPC: 0.38277 (Simulation time: 0 hr 5 min 6 sec) 
Heartbeat CPU  0 instructions:  155000000 cycles:  212687415 heartbeat IPC: 0.53989 cumulative IPC: 0.38481 (Simulation time: 0 hr 5 min 8 sec) 
Heartbeat CPU  0 instructions:  156000000 cycles:  214426255 heartbeat IPC: 0.57510 cumulative IPC: 0.38709 (Simulation time: 0 hr 5 min 11 sec) 
Heartbeat CPU  0 instructions:  157000001 cycles:  216318961 heartbeat IPC: 0.52834 cumulative IPC: 0.38892 (Simulation time: 0 hr 5 min 13 sec) 
Heartbeat CPU  0 instructions:  158000001 cycles:  218208345 heartbeat IPC: 0.52927 cumulative IPC: 0.39071 (Simulation time: 0 hr 5 min 15 sec) 
Heartbeat CPU  0 instructions:  159000000 cycles:  219933262 heartbeat IPC: 0.57974 cumulative IPC: 0.39288 (Simulation time: 0 hr 5 min 18 sec) 
Heartbeat CPU  0 instructions:  160000000 cycles:  221807621 heartbeat IPC: 0.53352 cumulative IPC: 0.39461 (Simulation time: 0 hr 5 min 20 sec) 
Heartbeat CPU  0 instructions:  161000003 cycles:  223704206 heartbeat IPC: 0.52727 cumulative IPC: 0.39624 (Simulation time: 0 hr 5 min 22 sec) 
Heartbeat CPU  0 instructions:  162000000 cycles:  225494113 heartbeat IPC: 0.55869 cumulative IPC: 0.39811 (Simulation time: 0 hr 5 min 25 sec) 
Heartbeat CPU  0 instructions:  163000003 cycles:  227292439 heartbeat IPC: 0.55607 cumulative IPC: 0.39991 (Simulation time: 0 hr 5 min 27 sec) 
Heartbeat CPU  0 instructions:  164000000 cycles:  229185481 heartbeat IPC: 0.52825 cumulative IPC: 0.40144 (Simulation time: 0 hr 5 min 29 sec) 
Heartbeat CPU  0 instructions:  165000000 cycles:  231061100 heartbeat IPC: 0.53316 cumulative IPC: 0.40297 (Simulation time: 0 hr 5 min 31 sec) 
Heartbeat CPU  0 instructions:  166000001 cycles:  232784662 heartbeat IPC: 0.58019 cumulative IPC: 0.40484 (Simulation time: 0 hr 5 min 33 sec) 
Heartbeat CPU  0 instructions:  167000000 cycles:  234673521 heartbeat IPC: 0.52942 cumulative IPC: 0.40627 (Simulation time: 0 hr 5 min 35 sec) 
Heartbeat CPU  0 instructions:  168000000 cycles:  236564450 heartbeat IPC: 0.52884 cumulative IPC: 0.40766 (Simulation time: 0 hr 5 min 37 sec) 
Heartbeat CPU  0 instructions:  169000001 cycles:  238297991 heartbeat IPC: 0.57685 cumulative IPC: 0.40940 (Simulation time: 0 hr 5 min 40 sec) 
Heartbeat CPU  0 instructions:  170000002 cycles:  240151482 heartbeat IPC: 0.53952 cumulative IPC: 0.41082 (Simulation time: 0 hr 5 min 42 sec) 
Heartbeat CPU  0 instructions:  171000001 cycles:  242049064 heartbeat IPC: 0.52699 cumulative IPC: 0.41210 (Simulation time: 0 hr 5 min 44 sec) 
Heartbeat CPU  0 instructions:  172000000 cycles:  243856861 heartbeat IPC: 0.55316 cumulative IPC: 0.41356 (Simulation time: 0 hr 5 min 46 sec) 
Heartbeat CPU  0 instructions:  173000000 cycles:  245636484 heartbeat IPC: 0.56192 cumulative IPC: 0.41506 (Simulation time: 0 hr 5 min 49 sec) 
Heartbeat CPU  0 instructions:  174000003 cycles:  247530469 heartbeat IPC: 0.52799 cumulative IPC: 0.41626 (Simulation time: 0 hr 5 min 51 sec) 
Heartbeat CPU  0 instructions:  175000000 cycles:  254712784 heartbeat IPC: 0.13923 cumulative IPC: 0.40551 (Simulation time: 0 hr 5 min 54 sec) 
Heartbeat CPU  0 instructions:  176000000 cycles:  264992075 heartbeat IPC: 0.09728 cumulative IPC: 0.38928 (Simulation time: 0 hr 5 min 56 sec) 
Heartbeat CPU  0 instructions:  177000001 cycles:  266955089 heartbeat IPC: 0.50942 cumulative IPC: 0.39047 (Simulation time: 0 hr 5 min 58 sec) 
Heartbeat CPU  0 instructions:  178000003 cycles:  269000524 heartbeat IPC: 0.48889 cumulative IPC: 0.39148 (Simulation time: 0 hr 6 min 1 sec) 
Heartbeat CPU  0 instructions:  179000002 cycles:  270904118 heartbeat IPC: 0.52532 cumulative IPC: 0.39275 (Simulation time: 0 hr 6 min 3 sec) 
Heartbeat CPU  0 instructions:  180000000 cycles:  272787583 heartbeat IPC: 0.53094 cumulative IPC: 0.39403 (Simulation time: 0 hr 6 min 5 sec) 
Heartbeat CPU  0 instructions:  181000003 cycles:  274697672 heartbeat IPC: 0.52354 cumulative IPC: 0.39524 (Simulation time: 0 hr 6 min 7 sec) 
Heartbeat CPU  0 instructions:  182000003 cycles:  276524944 heartbeat IPC: 0.54726 cumulative IPC: 0.39658 (Simulation time: 0 hr 6 min 9 sec) 
Heartbeat CPU  0 instructions:  183000000 cycles:  278333858 heartbeat IPC: 0.55282 cumulative IPC: 0.39794 (Simulation time: 0 hr 6 min 12 sec) 
Heartbeat CPU  0 instructions:  184000000 cycles:  280241452 heartbeat IPC: 0.52422 cumulative IPC: 0.39908 (Simulation time: 0 hr 6 min 14 sec) 
Heartbeat CPU  0 instructions:  185000002 cycles:  282138735 heartbeat IPC: 0.52707 cumulative IPC: 0.40023 (Simulation time: 0 hr 6 min 16 sec) 
Heartbeat CPU  0 instructions:  186000001 cycles:  283896882 heartbeat IPC: 0.56878 cumulative IPC: 0.40161 (Simulation time: 0 hr 6 min 18 sec) 
Heartbeat CPU  0 instructions:  187000000 cycles:  285792766 heartbeat IPC: 0.52746 cumulative IPC: 0.40271 (Simulation time: 0 hr 6 min 20 sec) 
Heartbeat CPU  0 instructions:  188000000 cycles:  287702024 heartbeat IPC: 0.52376 cumulative IPC: 0.40377 (Simulation time: 0 hr 6 min 23 sec) 
Heartbeat CPU  0 instructions:  189000000 cycles:  289471234 heartbeat IPC: 0.56522 cumulative IPC: 0.40507 (Simulation time: 0 hr 6 min 25 sec) 
Heartbeat CPU  0 instructions:  190000000 cycles:  291336749 heartbeat IPC: 0.53605 cumulative IPC: 0.40618 (Simulation time: 0 hr 6 min 27 sec) 
Heartbeat CPU  0 instructions:  191000000 cycles:  293247164 heartbeat IPC: 0.52345 cumulative IPC: 0.40718 (Simulation time: 0 hr 6 min 29 sec) 
Heartbeat CPU  0 instructions:  192000000 cycles:  295087168 heartbeat IPC: 0.54348 cumulative IPC: 0.40829 (Simulation time: 0 hr 6 min 31 sec) 
Heartbeat CPU  0 instructions:  193000001 cycles:  296881592 heartbeat IPC: 0.55728 cumulative IPC: 0.40947 (Simulation time: 0 hr 6 min 34 sec) 
Heartbeat CPU  0 instructions:  194000000 cycles:  298790839 heartbeat IPC: 0.52377 cumulative IPC: 0.41042 (Simulation time: 0 hr 6 min 36 sec) 
Heartbeat CPU  0 instructions:  195000002 cycles:  300687324 heartbeat IPC: 0.52729 cumulative IPC: 0.41138 (Simulation time: 0 hr 6 min 38 sec) 
Heartbeat CPU  0 instructions:  196000000 cycles:  302439582 heartbeat IPC: 0.57069 cumulative IPC: 0.41258 (Simulation time: 0 hr 6 min 40 sec) 
Heartbeat CPU  0 instructions:  197000000 cycles:  304446945 heartbeat IPC: 0.49817 cumulative IPC: 0.41331 (Simulation time: 0 hr 6 min 42 sec) 
Heartbeat CPU  0 instructions:  198000003 cycles:  318764596 heartbeat IPC: 0.06984 cumulative IPC: 0.39357 (Simulation time: 0 hr 6 min 45 sec) 
Heartbeat CPU  0 instructions:  199000001 cycles:  321864395 heartbeat IPC: 0.32260 cumulative IPC: 0.39269 (Simulation time: 0 hr 6 min 47 sec) 
Heartbeat CPU  0 instructions:  200000000 cycles:  323735092 heartbeat IPC: 0.53456 cumulative IPC: 0.39374 (Simulation time: 0 hr 6 min 50 sec) 
Finished CPU 0 instructions: 100000000 cycles: 253976286 cumulative IPC: 0.39374 (Simulation time: 0 hr 6 min 50 sec) 

ChampSim completed all CPUs

[ROI Statistics]
Core_0_instructions 100000000
Core_0_cycles 253976286
Core_0_IPC 0.39374

Core_0_branch_prediction_accuracy 99.16976
Core_0_branch_MPKI 0.01138
Core_0_average_ROB_occupancy_at_mispredict 253.39367

Core_0_L1D_total_access 83639158
Core_0_L1D_total_hit 82797137
Core_0_L1D_total_miss 842021
Core_0_L1D_loads 34096196
Core_0_L1D_load_hit 34065787
Core_0_L1D_load_miss 30409
Core_0_L1D_RFOs 16670128
Core_0_L1D_RFO_hit 16505610
Core_0_L1D_RFO_miss 164518
Core_0_L1D_prefetches 32872834
Core_0_L1D_prefetch_hit 32225740
Core_0_L1D_prefetch_miss 647094
Core_0_L1D_writebacks 0
Core_0_L1D_writeback_hit 0
Core_0_L1D_writeback_miss 0
Core_0_L1D_prefetch_requested 81144678
Core_0_L1D_prefetch_issued 78603903
Core_0_L1D_prefetch_useful 1249046
Core_0_L1D_prefetch_useless 36627
Core_0_L1D_prefetch_late 3031
Core_0_L1D_average_miss_latency 702591.91716

Core_0_L1I_total_access 26514903
Core_0_L1I_total_hit 26514903
Core_0_L1I_total_miss 0
Core_0_L1I_loads 26514903
Core_0_L1I_load_hit 26514903
Core_0_L1I_load_miss 0
Core_0_L1I_RFOs 0
Core_0_L1I_RFO_hit 0
Core_0_L1I_RFO_miss 0
Core_0_L1I_prefetches 0
Core_0_L1I_prefetch_hit 0
Core_0_L1I_prefetch_miss 0
Core_0_L1I_writebacks 0
Core_0_L1I_writeback_hit 0
Core_0_L1I_writeback_miss 0
Core_0_L1I_prefetch_requested 0
Core_0_L1I_prefetch_issued 0
Core_0_L1I_prefetch_useful 0
Core_0_L1I_prefetch_useless 0
Core_0_L1I_prefetch_late 0
Core_0_L1I_average_miss_latency -nan

Core_0_L2C_total_access 1012319
Core_0_L2C_total_hit 469232
Core_0_L2C_total_miss 543087
Core_0_L2C_loads 27408
Core_0_L2C_load_hit 21052
Core_0_L2C_load_miss 6356
Core_0_L2C_RFOs 164423
Core_0_L2C_RFO_hit 279
Core_0_L2C_RFO_miss 164144
Core_0_L2C_prefetches 650174
Core_0_L2C_prefetch_hit 277802
Core_0_L2C_prefetch_miss 372372
Core_0_L2C_writebacks 170314
Core_0_L2C_writeback_hit 170099
Core_0_L2C_writeback_miss 215
Core_0_L2C_prefetch_requested 0
Core_0_L2C_prefetch_issued 0
Core_0_L2C_prefetch_useful 11630
Core_0_L2C_prefetch_useless 705486
Core_0_L2C_prefetch_late 0
Core_0_L2C_average_miss_latency 262.45101

Core_0_LLC_total_access 706610
Core_0_LLC_total_hit 130419
Core_0_LLC_total_miss 576191
Core_0_LLC_loads 6356
Core_0_LLC_load_hit 1371
Core_0_LLC_load_miss 4985
Core_0_LLC_RFOs 164144
Core_0_LLC_RFO_hit 21294
Core_0_LLC_RFO_miss 142850
Core_0_LLC_prefetches 372372
Core_0_LLC_prefetch_hit 79349
Core_0_LLC_prefetch_miss 293023
Core_0_LLC_writebacks 163738
Core_0_LLC_writeback_hit 28405
Core_0_LLC_writeback_miss 135333
Core_0_LLC_prefetch_requested 0
Core_0_LLC_prefetch_issued 0
Core_0_LLC_prefetch_useful 4212
Core_0_LLC_prefetch_useless 621742
Core_0_LLC_prefetch_late 0
Core_0_LLC_average_miss_latency 180.40977

Core_0_major_page_fault 0
Core_0_minor_page_fault 8761

CPU 0 L1D next line prefetcher final stats
Channel_0_RQ_row_buffer_hit 105583
Channel_0_RQ_row_buffer_miss 335271
Channel_0_WQ_row_buffer_hit 16466
Channel_0_WQ_row_buffer_miss 125723
Channel_0_WQ_full 0
Channel_0_dbus_congested 147663

avg_congested_cycle 10
