*************************************************
   ChampSim Multicore Out-of-Order Simulator
   Last compiled: Dec 22 2023 20:05:17
*************************************************

trace_0 ./test_trace/436.cactusADM-1804B.champsimtrace.xz
CPU 0 L1D next line prefetcher
CPU 0 L2C IP-based stride prefetcher
warmup_instructions 100000000
simulation_instructions 100000000
champsim_seed 271

num_cpus 1
cpu_freq 4000
dram_io_freq 2400
page_size 4096
block_size 64
max_read_per_cycle 8
max_fill_per_cycle 1
dram_channels 1
dram_ranks 1
dram_banks 8
dram_rows 65536
dram_columns 128
dram_row_size 8
dram_size 4096
dram_pages 1048576

fetch_width 6
decode_width 6
exec_width 4
lq_width 2
sq_width 2
retire_width 4
scheduler_size 128
branch_mispredict_penalty 20
rob_size 256
lq_size 72
sq_size 56
num_instr_destinations_sparc 4
num_instr_destinations 2
num_instr_sources 4

itlb_set 16
itlb_way 8
itlb_rq_size 16
itlb_wq_size 16
itlb_pq_size 0
itlb_mshr_size 8
itlb_latency 1

dtlb_set 16
dtlb_way 4
dtlb_rq_size 16
dtlb_wq_size 16
dtlb_pq_size 0
dtlb_mshr_size 8
dtlb_latency 1

stlb_set 128
stlb_way 12
stlb_rq_size 32
stlb_wq_size 32
stlb_pq_size 0
stlb_mshr_size 16
stlb_latency 8

l1i_size 32
l1i_set 64
l1i_way 8
l1i_rq_size 64
l1i_wq_size 64
l1i_pq_size 8
l1i_mshr_size 8
l1i_latency 1

l1d_size 32
l1d_set 64
l1d_way 8
l1d_rq_size 64
l1d_wq_size 64
l1d_pq_size 8
l1d_mshr_size 16
l1d_latency 4

l2c_size 512
l2c_set 1024
l2c_way 8
l2c_rq_size 32
l2c_wq_size 32
l2c_pq_size 16
l2c_mshr_size 32
l2c_latency 10

llc_size 2048
llc_set 2048
llc_way 16
llc_rq_size 32
llc_wq_size 32
llc_pq_size 32
llc_mshr_size 64
llc_latency 20

dram_channel_width 8
dram_wq_size 64
dram_rq_size 64
tRP 15
tRCD 15
tCAS 12.5
dram_dbus_turn_around_time 30
dram_write_high_wm 56
dram_write_low_wm 48
min_dram_writes_per_switch 16
dram_mtps 2400
dram_dbus_return_time 13


Heartbeat CPU  0 instructions:    1000000 cycles:     702167 heartbeat IPC: 1.42416 cumulative IPC: 1.42416 (Simulation time: 0 hr 0 min 2 sec) 
Heartbeat CPU  0 instructions:    2000000 cycles:    1404092 heartbeat IPC: 1.42465 cumulative IPC: 1.42441 (Simulation time: 0 hr 0 min 4 sec) 
Heartbeat CPU  0 instructions:    3000000 cycles:    2106232 heartbeat IPC: 1.42422 cumulative IPC: 1.42434 (Simulation time: 0 hr 0 min 6 sec) 
Heartbeat CPU  0 instructions:    4000000 cycles:    2808359 heartbeat IPC: 1.42424 cumulative IPC: 1.42432 (Simulation time: 0 hr 0 min 8 sec) 
Heartbeat CPU  0 instructions:    5000000 cycles:    3510266 heartbeat IPC: 1.42469 cumulative IPC: 1.42439 (Simulation time: 0 hr 0 min 10 sec) 
Heartbeat CPU  0 instructions:    6000000 cycles:    4212372 heartbeat IPC: 1.42429 cumulative IPC: 1.42438 (Simulation time: 0 hr 0 min 11 sec) 
Heartbeat CPU  0 instructions:    7000001 cycles:    4914628 heartbeat IPC: 1.42398 cumulative IPC: 1.42432 (Simulation time: 0 hr 0 min 13 sec) 
Heartbeat CPU  0 instructions:    8000000 cycles:    5616445 heartbeat IPC: 1.42487 cumulative IPC: 1.42439 (Simulation time: 0 hr 0 min 15 sec) 
Heartbeat CPU  0 instructions:    9000001 cycles:    6318672 heartbeat IPC: 1.42404 cumulative IPC: 1.42435 (Simulation time: 0 hr 0 min 17 sec) 
Heartbeat CPU  0 instructions:   10000000 cycles:    7020712 heartbeat IPC: 1.42442 cumulative IPC: 1.42436 (Simulation time: 0 hr 0 min 19 sec) 
Heartbeat CPU  0 instructions:   11000002 cycles:    7722676 heartbeat IPC: 1.42458 cumulative IPC: 1.42438 (Simulation time: 0 hr 0 min 21 sec) 
Heartbeat CPU  0 instructions:   12000000 cycles:    8424610 heartbeat IPC: 1.42463 cumulative IPC: 1.42440 (Simulation time: 0 hr 0 min 23 sec) 
Heartbeat CPU  0 instructions:   13000000 cycles:    9126948 heartbeat IPC: 1.42382 cumulative IPC: 1.42435 (Simulation time: 0 hr 0 min 25 sec) 
Heartbeat CPU  0 instructions:   14000002 cycles:    9829009 heartbeat IPC: 1.42438 cumulative IPC: 1.42436 (Simulation time: 0 hr 0 min 26 sec) 
Heartbeat CPU  0 instructions:   15000002 cycles:   10530699 heartbeat IPC: 1.42513 cumulative IPC: 1.42441 (Simulation time: 0 hr 0 min 28 sec) 
Heartbeat CPU  0 instructions:   16000000 cycles:   11233099 heartbeat IPC: 1.42369 cumulative IPC: 1.42436 (Simulation time: 0 hr 0 min 30 sec) 
Heartbeat CPU  0 instructions:   17000000 cycles:   11935414 heartbeat IPC: 1.42386 cumulative IPC: 1.42433 (Simulation time: 0 hr 0 min 32 sec) 
Heartbeat CPU  0 instructions:   18000001 cycles:   12594460 heartbeat IPC: 1.51735 cumulative IPC: 1.42920 (Simulation time: 0 hr 0 min 34 sec) 
Heartbeat CPU  0 instructions:   19000000 cycles:   13226718 heartbeat IPC: 1.58163 cumulative IPC: 1.43649 (Simulation time: 0 hr 0 min 36 sec) 
Heartbeat CPU  0 instructions:   20000000 cycles:   13928987 heartbeat IPC: 1.42396 cumulative IPC: 1.43585 (Simulation time: 0 hr 0 min 38 sec) 
Heartbeat CPU  0 instructions:   21000000 cycles:   14631150 heartbeat IPC: 1.42417 cumulative IPC: 1.43529 (Simulation time: 0 hr 0 min 39 sec) 
Heartbeat CPU  0 instructions:   22000002 cycles:   15333177 heartbeat IPC: 1.42445 cumulative IPC: 1.43480 (Simulation time: 0 hr 0 min 41 sec) 
Heartbeat CPU  0 instructions:   23000001 cycles:   16035306 heartbeat IPC: 1.42424 cumulative IPC: 1.43433 (Simulation time: 0 hr 0 min 43 sec) 
Heartbeat CPU  0 instructions:   24000000 cycles:   16737161 heartbeat IPC: 1.42479 cumulative IPC: 1.43393 (Simulation time: 0 hr 0 min 45 sec) 
Heartbeat CPU  0 instructions:   25000001 cycles:   17439272 heartbeat IPC: 1.42428 cumulative IPC: 1.43355 (Simulation time: 0 hr 0 min 47 sec) 
Heartbeat CPU  0 instructions:   26000003 cycles:   18141591 heartbeat IPC: 1.42386 cumulative IPC: 1.43317 (Simulation time: 0 hr 0 min 49 sec) 
Heartbeat CPU  0 instructions:   27000003 cycles:   18843557 heartbeat IPC: 1.42457 cumulative IPC: 1.43285 (Simulation time: 0 hr 0 min 51 sec) 
Heartbeat CPU  0 instructions:   28000000 cycles:   19545500 heartbeat IPC: 1.42461 cumulative IPC: 1.43255 (Simulation time: 0 hr 0 min 53 sec) 
Heartbeat CPU  0 instructions:   29000000 cycles:   20247685 heartbeat IPC: 1.42413 cumulative IPC: 1.43226 (Simulation time: 0 hr 0 min 55 sec) 
Heartbeat CPU  0 instructions:   30000003 cycles:   20949820 heartbeat IPC: 1.42423 cumulative IPC: 1.43199 (Simulation time: 0 hr 0 min 56 sec) 
Heartbeat CPU  0 instructions:   31000003 cycles:   21651506 heartbeat IPC: 1.42514 cumulative IPC: 1.43177 (Simulation time: 0 hr 0 min 58 sec) 
Heartbeat CPU  0 instructions:   32000000 cycles:   22353376 heartbeat IPC: 1.42476 cumulative IPC: 1.43155 (Simulation time: 0 hr 1 min 0 sec) 
Heartbeat CPU  0 instructions:   33000001 cycles:   23055857 heartbeat IPC: 1.42353 cumulative IPC: 1.43131 (Simulation time: 0 hr 1 min 2 sec) 
Heartbeat CPU  0 instructions:   34000000 cycles:   23757831 heartbeat IPC: 1.42455 cumulative IPC: 1.43111 (Simulation time: 0 hr 1 min 4 sec) 
Heartbeat CPU  0 instructions:   35000001 cycles:   24459722 heartbeat IPC: 1.42472 cumulative IPC: 1.43092 (Simulation time: 0 hr 1 min 6 sec) 
Heartbeat CPU  0 instructions:   36000000 cycles:   25161692 heartbeat IPC: 1.42456 cumulative IPC: 1.43075 (Simulation time: 0 hr 1 min 8 sec) 
Heartbeat CPU  0 instructions:   37000000 cycles:   25864046 heartbeat IPC: 1.42378 cumulative IPC: 1.43056 (Simulation time: 0 hr 1 min 9 sec) 
Heartbeat CPU  0 instructions:   38000001 cycles:   26566022 heartbeat IPC: 1.42455 cumulative IPC: 1.43040 (Simulation time: 0 hr 1 min 11 sec) 
Heartbeat CPU  0 instructions:   39000000 cycles:   27267946 heartbeat IPC: 1.42465 cumulative IPC: 1.43025 (Simulation time: 0 hr 1 min 13 sec) 
Heartbeat CPU  0 instructions:   40000000 cycles:   27969927 heartbeat IPC: 1.42454 cumulative IPC: 1.43011 (Simulation time: 0 hr 1 min 15 sec) 
Heartbeat CPU  0 instructions:   41000000 cycles:   28570963 heartbeat IPC: 1.66379 cumulative IPC: 1.43502 (Simulation time: 0 hr 1 min 17 sec) 
Heartbeat CPU  0 instructions:   42000002 cycles:   29261618 heartbeat IPC: 1.44790 cumulative IPC: 1.43533 (Simulation time: 0 hr 1 min 19 sec) 
Heartbeat CPU  0 instructions:   43000002 cycles:   29963781 heartbeat IPC: 1.42417 cumulative IPC: 1.43507 (Simulation time: 0 hr 1 min 21 sec) 
Heartbeat CPU  0 instructions:   44000000 cycles:   30665896 heartbeat IPC: 1.42427 cumulative IPC: 1.43482 (Simulation time: 0 hr 1 min 23 sec) 
Heartbeat CPU  0 instructions:   45000003 cycles:   31367890 heartbeat IPC: 1.42452 cumulative IPC: 1.43459 (Simulation time: 0 hr 1 min 24 sec) 
Heartbeat CPU  0 instructions:   46000003 cycles:   32069823 heartbeat IPC: 1.42464 cumulative IPC: 1.43437 (Simulation time: 0 hr 1 min 26 sec) 
Heartbeat CPU  0 instructions:   47000000 cycles:   32771787 heartbeat IPC: 1.42457 cumulative IPC: 1.43416 (Simulation time: 0 hr 1 min 28 sec) 
Heartbeat CPU  0 instructions:   48000000 cycles:   33474121 heartbeat IPC: 1.42382 cumulative IPC: 1.43394 (Simulation time: 0 hr 1 min 30 sec) 
Heartbeat CPU  0 instructions:   49000000 cycles:   34175859 heartbeat IPC: 1.42503 cumulative IPC: 1.43376 (Simulation time: 0 hr 1 min 32 sec) 
Heartbeat CPU  0 instructions:   50000000 cycles:   34877945 heartbeat IPC: 1.42433 cumulative IPC: 1.43357 (Simulation time: 0 hr 1 min 34 sec) 
Heartbeat CPU  0 instructions:   51000000 cycles:   35580219 heartbeat IPC: 1.42395 cumulative IPC: 1.43338 (Simulation time: 0 hr 1 min 36 sec) 
Heartbeat CPU  0 instructions:   52000000 cycles:   36282108 heartbeat IPC: 1.42473 cumulative IPC: 1.43321 (Simulation time: 0 hr 1 min 37 sec) 
Heartbeat CPU  0 instructions:   53000000 cycles:   36984232 heartbeat IPC: 1.42425 cumulative IPC: 1.43304 (Simulation time: 0 hr 1 min 39 sec) 
Heartbeat CPU  0 instructions:   54000001 cycles:   37686064 heartbeat IPC: 1.42484 cumulative IPC: 1.43289 (Simulation time: 0 hr 1 min 41 sec) 
Heartbeat CPU  0 instructions:   55000001 cycles:   38388089 heartbeat IPC: 1.42445 cumulative IPC: 1.43274 (Simulation time: 0 hr 1 min 43 sec) 
Heartbeat CPU  0 instructions:   56000000 cycles:   39090294 heartbeat IPC: 1.42408 cumulative IPC: 1.43258 (Simulation time: 0 hr 1 min 45 sec) 
Heartbeat CPU  0 instructions:   57000000 cycles:   39792517 heartbeat IPC: 1.42405 cumulative IPC: 1.43243 (Simulation time: 0 hr 1 min 47 sec) 
Heartbeat CPU  0 instructions:   58000003 cycles:   40494525 heartbeat IPC: 1.42449 cumulative IPC: 1.43229 (Simulation time: 0 hr 1 min 49 sec) 
Heartbeat CPU  0 instructions:   59000000 cycles:   41196413 heartbeat IPC: 1.42472 cumulative IPC: 1.43216 (Simulation time: 0 hr 1 min 51 sec) 
Heartbeat CPU  0 instructions:   60000000 cycles:   41898613 heartbeat IPC: 1.42410 cumulative IPC: 1.43203 (Simulation time: 0 hr 1 min 52 sec) 
Heartbeat CPU  0 instructions:   61000000 cycles:   42600557 heartbeat IPC: 1.42462 cumulative IPC: 1.43191 (Simulation time: 0 hr 1 min 54 sec) 
Heartbeat CPU  0 instructions:   62000002 cycles:   43302486 heartbeat IPC: 1.42465 cumulative IPC: 1.43179 (Simulation time: 0 hr 1 min 56 sec) 
Heartbeat CPU  0 instructions:   63000000 cycles:   43947306 heartbeat IPC: 1.55082 cumulative IPC: 1.43353 (Simulation time: 0 hr 1 min 58 sec) 
Heartbeat CPU  0 instructions:   64000000 cycles:   44596039 heartbeat IPC: 1.54147 cumulative IPC: 1.43511 (Simulation time: 0 hr 2 min 0 sec) 
Heartbeat CPU  0 instructions:   65000000 cycles:   45297922 heartbeat IPC: 1.42474 cumulative IPC: 1.43494 (Simulation time: 0 hr 2 min 2 sec) 
Heartbeat CPU  0 instructions:   66000001 cycles:   45999708 heartbeat IPC: 1.42494 cumulative IPC: 1.43479 (Simulation time: 0 hr 2 min 4 sec) 
Heartbeat CPU  0 instructions:   67000002 cycles:   46701575 heartbeat IPC: 1.42477 cumulative IPC: 1.43464 (Simulation time: 0 hr 2 min 5 sec) 
Heartbeat CPU  0 instructions:   68000000 cycles:   47403729 heartbeat IPC: 1.42419 cumulative IPC: 1.43449 (Simulation time: 0 hr 2 min 7 sec) 
Heartbeat CPU  0 instructions:   69000000 cycles:   48105733 heartbeat IPC: 1.42449 cumulative IPC: 1.43434 (Simulation time: 0 hr 2 min 9 sec) 
Heartbeat CPU  0 instructions:   70000002 cycles:   48807630 heartbeat IPC: 1.42471 cumulative IPC: 1.43420 (Simulation time: 0 hr 2 min 11 sec) 
Heartbeat CPU  0 instructions:   71000003 cycles:   49509998 heartbeat IPC: 1.42376 cumulative IPC: 1.43405 (Simulation time: 0 hr 2 min 13 sec) 
Heartbeat CPU  0 instructions:   72000000 cycles:   50211845 heartbeat IPC: 1.42481 cumulative IPC: 1.43392 (Simulation time: 0 hr 2 min 15 sec) 
Heartbeat CPU  0 instructions:   73000001 cycles:   50913729 heartbeat IPC: 1.42474 cumulative IPC: 1.43380 (Simulation time: 0 hr 2 min 17 sec) 
Heartbeat CPU  0 instructions:   74000003 cycles:   51615813 heartbeat IPC: 1.42433 cumulative IPC: 1.43367 (Simulation time: 0 hr 2 min 19 sec) 
Heartbeat CPU  0 instructions:   75000002 cycles:   52318228 heartbeat IPC: 1.42366 cumulative IPC: 1.43353 (Simulation time: 0 hr 2 min 20 sec) 
Heartbeat CPU  0 instructions:   76000000 cycles:   53020168 heartbeat IPC: 1.42462 cumulative IPC: 1.43342 (Simulation time: 0 hr 2 min 22 sec) 
Heartbeat CPU  0 instructions:   77000003 cycles:   53722551 heartbeat IPC: 1.42373 cumulative IPC: 1.43329 (Simulation time: 0 hr 2 min 24 sec) 
Heartbeat CPU  0 instructions:   78000001 cycles:   54424866 heartbeat IPC: 1.42386 cumulative IPC: 1.43317 (Simulation time: 0 hr 2 min 26 sec) 
Heartbeat CPU  0 instructions:   79000001 cycles:   55126534 heartbeat IPC: 1.42518 cumulative IPC: 1.43307 (Simulation time: 0 hr 2 min 28 sec) 
Heartbeat CPU  0 instructions:   80000000 cycles:   55828349 heartbeat IPC: 1.42488 cumulative IPC: 1.43296 (Simulation time: 0 hr 2 min 30 sec) 
Heartbeat CPU  0 instructions:   81000002 cycles:   56530470 heartbeat IPC: 1.42426 cumulative IPC: 1.43286 (Simulation time: 0 hr 2 min 32 sec) 
Heartbeat CPU  0 instructions:   82000003 cycles:   57232468 heartbeat IPC: 1.42451 cumulative IPC: 1.43275 (Simulation time: 0 hr 2 min 34 sec) 
Heartbeat CPU  0 instructions:   83000001 cycles:   57934519 heartbeat IPC: 1.42440 cumulative IPC: 1.43265 (Simulation time: 0 hr 2 min 35 sec) 
Heartbeat CPU  0 instructions:   84000000 cycles:   58636497 heartbeat IPC: 1.42454 cumulative IPC: 1.43255 (Simulation time: 0 hr 2 min 37 sec) 
Heartbeat CPU  0 instructions:   85000000 cycles:   59324371 heartbeat IPC: 1.45375 cumulative IPC: 1.43280 (Simulation time: 0 hr 2 min 39 sec) 
Heartbeat CPU  0 instructions:   86000002 cycles:   59929433 heartbeat IPC: 1.65273 cumulative IPC: 1.43502 (Simulation time: 0 hr 2 min 41 sec) 
Heartbeat CPU  0 instructions:   87000002 cycles:   60631677 heartbeat IPC: 1.42401 cumulative IPC: 1.43489 (Simulation time: 0 hr 2 min 43 sec) 
Heartbeat CPU  0 instructions:   88000000 cycles:   61333997 heartbeat IPC: 1.42385 cumulative IPC: 1.43477 (Simulation time: 0 hr 2 min 45 sec) 
Heartbeat CPU  0 instructions:   89000001 cycles:   62035793 heartbeat IPC: 1.42492 cumulative IPC: 1.43466 (Simulation time: 0 hr 2 min 47 sec) 
Heartbeat CPU  0 instructions:   90000003 cycles:   62737891 heartbeat IPC: 1.42431 cumulative IPC: 1.43454 (Simulation time: 0 hr 2 min 49 sec) 
Heartbeat CPU  0 instructions:   91000003 cycles:   63440038 heartbeat IPC: 1.42420 cumulative IPC: 1.43443 (Simulation time: 0 hr 2 min 50 sec) 
Heartbeat CPU  0 instructions:   92000000 cycles:   64141990 heartbeat IPC: 1.42459 cumulative IPC: 1.43432 (Simulation time: 0 hr 2 min 52 sec) 
Heartbeat CPU  0 instructions:   93000002 cycles:   64844027 heartbeat IPC: 1.42443 cumulative IPC: 1.43421 (Simulation time: 0 hr 2 min 54 sec) 
Heartbeat CPU  0 instructions:   94000002 cycles:   65545822 heartbeat IPC: 1.42492 cumulative IPC: 1.43411 (Simulation time: 0 hr 2 min 56 sec) 
Heartbeat CPU  0 instructions:   95000003 cycles:   66247745 heartbeat IPC: 1.42466 cumulative IPC: 1.43401 (Simulation time: 0 hr 2 min 58 sec) 
Heartbeat CPU  0 instructions:   96000000 cycles:   66949817 heartbeat IPC: 1.42435 cumulative IPC: 1.43391 (Simulation time: 0 hr 3 min 0 sec) 
Heartbeat CPU  0 instructions:   97000000 cycles:   67651899 heartbeat IPC: 1.42434 cumulative IPC: 1.43381 (Simulation time: 0 hr 3 min 2 sec) 
Heartbeat CPU  0 instructions:   98000002 cycles:   68353813 heartbeat IPC: 1.42468 cumulative IPC: 1.43372 (Simulation time: 0 hr 3 min 4 sec) 
Heartbeat CPU  0 instructions:   99000003 cycles:   69055774 heartbeat IPC: 1.42458 cumulative IPC: 1.43362 (Simulation time: 0 hr 3 min 6 sec) 
Heartbeat CPU  0 instructions:  100000000 cycles:   69757929 heartbeat IPC: 1.42418 cumulative IPC: 1.43353 (Simulation time: 0 hr 3 min 7 sec) 

Warmup complete CPU  0 instructions:  100000001 cycles:   69757949 (Simulation time: 0 hr 3 min 7 sec) 

Heartbeat CPU  0 instructions:  101000000 cycles:   71662429 heartbeat IPC: 0.52507 cumulative IPC: 0.52508 (Simulation time: 0 hr 3 min 10 sec) 
Heartbeat CPU  0 instructions:  102000003 cycles:   73399555 heartbeat IPC: 0.57567 cumulative IPC: 0.54921 (Simulation time: 0 hr 3 min 12 sec) 
Heartbeat CPU  0 instructions:  103000003 cycles:   75246268 heartbeat IPC: 0.54150 cumulative IPC: 0.54662 (Simulation time: 0 hr 3 min 14 sec) 
Heartbeat CPU  0 instructions:  104000000 cycles:   77139869 heartbeat IPC: 0.52809 cumulative IPC: 0.54186 (Simulation time: 0 hr 3 min 16 sec) 
Heartbeat CPU  0 instructions:  105000002 cycles:   78956711 heartbeat IPC: 0.55041 cumulative IPC: 0.54355 (Simulation time: 0 hr 3 min 18 sec) 
Heartbeat CPU  0 instructions:  106000000 cycles:   80733102 heartbeat IPC: 0.56294 cumulative IPC: 0.54669 (Simulation time: 0 hr 3 min 20 sec) 
Heartbeat CPU  0 instructions:  107000003 cycles:   82622963 heartbeat IPC: 0.52914 cumulative IPC: 0.54411 (Simulation time: 0 hr 3 min 22 sec) 
Heartbeat CPU  0 instructions:  108000000 cycles:   93341153 heartbeat IPC: 0.09330 cumulative IPC: 0.33922 (Simulation time: 0 hr 3 min 24 sec) 
Heartbeat CPU  0 instructions:  109000003 cycles:  100100304 heartbeat IPC: 0.14795 cumulative IPC: 0.29662 (Simulation time: 0 hr 3 min 27 sec) 
Heartbeat CPU  0 instructions:  110000001 cycles:  101989328 heartbeat IPC: 0.52937 cumulative IPC: 0.31026 (Simulation time: 0 hr 3 min 29 sec) 
Heartbeat CPU  0 instructions:  111000000 cycles:  103886140 heartbeat IPC: 0.52720 cumulative IPC: 0.32231 (Simulation time: 0 hr 3 min 31 sec) 
Heartbeat CPU  0 instructions:  112000000 cycles:  105632475 heartbeat IPC: 0.57263 cumulative IPC: 0.33450 (Simulation time: 0 hr 3 min 33 sec) 
Heartbeat CPU  0 instructions:  113000000 cycles:  107481313 heartbeat IPC: 0.54088 cumulative IPC: 0.34461 (Simulation time: 0 hr 3 min 35 sec) 
Heartbeat CPU  0 instructions:  114000000 cycles:  109388321 heartbeat IPC: 0.52438 cumulative IPC: 0.35326 (Simulation time: 0 hr 3 min 37 sec) 
Heartbeat CPU  0 instructions:  115000001 cycles:  111203331 heartbeat IPC: 0.55096 cumulative IPC: 0.36192 (Simulation time: 0 hr 3 min 39 sec) 
Heartbeat CPU  0 instructions:  116000000 cycles:  112978981 heartbeat IPC: 0.56317 cumulative IPC: 0.37019 (Simulation time: 0 hr 3 min 41 sec) 
Heartbeat CPU  0 instructions:  117000003 cycles:  114876537 heartbeat IPC: 0.52700 cumulative IPC: 0.37678 (Simulation time: 0 hr 3 min 44 sec) 
Heartbeat CPU  0 instructions:  118000002 cycles:  116760583 heartbeat IPC: 0.53077 cumulative IPC: 0.38296 (Simulation time: 0 hr 3 min 46 sec) 
Heartbeat CPU  0 instructions:  119000002 cycles:  118485876 heartbeat IPC: 0.57961 cumulative IPC: 0.38992 (Simulation time: 0 hr 3 min 48 sec) 
Heartbeat CPU  0 instructions:  120000000 cycles:  120370047 heartbeat IPC: 0.53074 cumulative IPC: 0.39516 (Simulation time: 0 hr 3 min 50 sec) 
Heartbeat CPU  0 instructions:  121000003 cycles:  122265365 heartbeat IPC: 0.52762 cumulative IPC: 0.39994 (Simulation time: 0 hr 3 min 52 sec) 
Heartbeat CPU  0 instructions:  122000003 cycles:  124024459 heartbeat IPC: 0.56847 cumulative IPC: 0.40541 (Simulation time: 0 hr 3 min 54 sec) 
Heartbeat CPU  0 instructions:  123000002 cycles:  125856310 heartbeat IPC: 0.54590 cumulative IPC: 0.40999 (Simulation time: 0 hr 3 min 56 sec) 
Heartbeat CPU  0 instructions:  124000000 cycles:  127755209 heartbeat IPC: 0.52662 cumulative IPC: 0.41381 (Simulation time: 0 hr 3 min 58 sec) 
Heartbeat CPU  0 instructions:  125000000 cycles:  129592757 heartbeat IPC: 0.54420 cumulative IPC: 0.41782 (Simulation time: 0 hr 4 min 0 sec) 
Heartbeat CPU  0 instructions:  126000002 cycles:  131365280 heartbeat IPC: 0.56417 cumulative IPC: 0.42203 (Simulation time: 0 hr 4 min 3 sec) 
Heartbeat CPU  0 instructions:  127000002 cycles:  133381340 heartbeat IPC: 0.49602 cumulative IPC: 0.42437 (Simulation time: 0 hr 4 min 5 sec) 
Heartbeat CPU  0 instructions:  128000000 cycles:  135268459 heartbeat IPC: 0.52991 cumulative IPC: 0.42741 (Simulation time: 0 hr 4 min 7 sec) 
Heartbeat CPU  0 instructions:  129000001 cycles:  136990149 heartbeat IPC: 0.58083 cumulative IPC: 0.43134 (Simulation time: 0 hr 4 min 9 sec) 
Heartbeat CPU  0 instructions:  130000000 cycles:  142491837 heartbeat IPC: 0.18176 cumulative IPC: 0.41246 (Simulation time: 0 hr 4 min 11 sec) 
Heartbeat CPU  0 instructions:  131000003 cycles:  154585652 heartbeat IPC: 0.08269 cumulative IPC: 0.36545 (Simulation time: 0 hr 4 min 13 sec) 
Heartbeat CPU  0 instructions:  132000000 cycles:  156348473 heartbeat IPC: 0.56727 cumulative IPC: 0.36956 (Simulation time: 0 hr 4 min 16 sec) 
Heartbeat CPU  0 instructions:  133000000 cycles:  158183147 heartbeat IPC: 0.54506 cumulative IPC: 0.37320 (Simulation time: 0 hr 4 min 18 sec) 
Heartbeat CPU  0 instructions:  134000000 cycles:  160081759 heartbeat IPC: 0.52670 cumulative IPC: 0.37642 (Simulation time: 0 hr 4 min 20 sec) 
Heartbeat CPU  0 instructions:  135000000 cycles:  161917351 heartbeat IPC: 0.54478 cumulative IPC: 0.37978 (Simulation time: 0 hr 4 min 22 sec) 
Heartbeat CPU  0 instructions:  136000000 cycles:  163677297 heartbeat IPC: 0.56820 cumulative IPC: 0.38331 (Simulation time: 0 hr 4 min 24 sec) 
Heartbeat CPU  0 instructions:  137000002 cycles:  165576036 heartbeat IPC: 0.52667 cumulative IPC: 0.38615 (Simulation time: 0 hr 4 min 26 sec) 
Heartbeat CPU  0 instructions:  138000001 cycles:  167465577 heartbeat IPC: 0.52923 cumulative IPC: 0.38892 (Simulation time: 0 hr 4 min 28 sec) 
Heartbeat CPU  0 instructions:  139000001 cycles:  169188358 heartbeat IPC: 0.58046 cumulative IPC: 0.39223 (Simulation time: 0 hr 4 min 30 sec) 
Heartbeat CPU  0 instructions:  140000000 cycles:  171076322 heartbeat IPC: 0.52967 cumulative IPC: 0.39480 (Simulation time: 0 hr 4 min 32 sec) 
Heartbeat CPU  0 instructions:  141000000 cycles:  172975031 heartbeat IPC: 0.52667 cumulative IPC: 0.39722 (Simulation time: 0 hr 4 min 35 sec) 
Heartbeat CPU  0 instructions:  142000001 cycles:  174750158 heartbeat IPC: 0.56334 cumulative IPC: 0.40003 (Simulation time: 0 hr 4 min 37 sec) 
Heartbeat CPU  0 instructions:  143000001 cycles:  176566903 heartbeat IPC: 0.55044 cumulative IPC: 0.40259 (Simulation time: 0 hr 4 min 39 sec) 
Heartbeat CPU  0 instructions:  144000000 cycles:  178466504 heartbeat IPC: 0.52643 cumulative IPC: 0.40475 (Simulation time: 0 hr 4 min 41 sec) 
Heartbeat CPU  0 instructions:  145000000 cycles:  180320664 heartbeat IPC: 0.53933 cumulative IPC: 0.40701 (Simulation time: 0 hr 4 min 43 sec) 
Heartbeat CPU  0 instructions:  146000002 cycles:  182066029 heartbeat IPC: 0.57295 cumulative IPC: 0.40959 (Simulation time: 0 hr 4 min 45 sec) 
Heartbeat CPU  0 instructions:  147000003 cycles:  183961430 heartbeat IPC: 0.52759 cumulative IPC: 0.41155 (Simulation time: 0 hr 4 min 47 sec) 
Heartbeat CPU  0 instructions:  148000000 cycles:  185851314 heartbeat IPC: 0.52913 cumulative IPC: 0.41346 (Simulation time: 0 hr 4 min 49 sec) 
Heartbeat CPU  0 instructions:  149000002 cycles:  187581201 heartbeat IPC: 0.57807 cumulative IPC: 0.41588 (Simulation time: 0 hr 4 min 51 sec) 
Heartbeat CPU  0 instructions:  150000003 cycles:  189454586 heartbeat IPC: 0.53379 cumulative IPC: 0.41772 (Simulation time: 0 hr 4 min 54 sec) 
Heartbeat CPU  0 instructions:  151000003 cycles:  191348135 heartbeat IPC: 0.52811 cumulative IPC: 0.41944 (Simulation time: 0 hr 4 min 56 sec) 
Heartbeat CPU  0 instructions:  152000000 cycles:  193154597 heartbeat IPC: 0.55357 cumulative IPC: 0.42141 (Simulation time: 0 hr 4 min 58 sec) 
Heartbeat CPU  0 instructions:  153000003 cycles:  205956683 heartbeat IPC: 0.07811 cumulative IPC: 0.38914 (Simulation time: 0 hr 5 min 0 sec) 
Heartbeat CPU  0 instructions:  154000000 cycles:  210896607 heartbeat IPC: 0.20243 cumulative IPC: 0.38260 (Simulation time: 0 hr 5 min 2 sec) 
Heartbeat CPU  0 instructions:  155000000 cycles:  212750616 heartbeat IPC: 0.53937 cumulative IPC: 0.38464 (Simulation time: 0 hr 5 min 4 sec) 
Heartbeat CPU  0 instructions:  156000000 cycles:  214492673 heartbeat IPC: 0.57403 cumulative IPC: 0.38691 (Simulation time: 0 hr 5 min 7 sec) 
Heartbeat CPU  0 instructions:  157000001 cycles:  216388156 heartbeat IPC: 0.52757 cumulative IPC: 0.38873 (Simulation time: 0 hr 5 min 9 sec) 
Heartbeat CPU  0 instructions:  158000001 cycles:  218279748 heartbeat IPC: 0.52866 cumulative IPC: 0.39052 (Simulation time: 0 hr 5 min 11 sec) 
Heartbeat CPU  0 instructions:  159000000 cycles:  220008557 heartbeat IPC: 0.57843 cumulative IPC: 0.39268 (Simulation time: 0 hr 5 min 13 sec) 
Heartbeat CPU  0 instructions:  160000000 cycles:  221885413 heartbeat IPC: 0.53281 cumulative IPC: 0.39441 (Simulation time: 0 hr 5 min 15 sec) 
Heartbeat CPU  0 instructions:  161000003 cycles:  223784654 heartbeat IPC: 0.52653 cumulative IPC: 0.39604 (Simulation time: 0 hr 5 min 17 sec) 
Heartbeat CPU  0 instructions:  162000000 cycles:  225578885 heartbeat IPC: 0.55734 cumulative IPC: 0.39789 (Simulation time: 0 hr 5 min 19 sec) 
Heartbeat CPU  0 instructions:  163000003 cycles:  227380063 heartbeat IPC: 0.55519 cumulative IPC: 0.39969 (Simulation time: 0 hr 5 min 21 sec) 
Heartbeat CPU  0 instructions:  164000000 cycles:  229275717 heartbeat IPC: 0.52752 cumulative IPC: 0.40121 (Simulation time: 0 hr 5 min 23 sec) 
Heartbeat CPU  0 instructions:  165000000 cycles:  231154102 heartbeat IPC: 0.53237 cumulative IPC: 0.40274 (Simulation time: 0 hr 5 min 26 sec) 
Heartbeat CPU  0 instructions:  166000001 cycles:  232880684 heartbeat IPC: 0.57918 cumulative IPC: 0.40460 (Simulation time: 0 hr 5 min 28 sec) 
Heartbeat CPU  0 instructions:  167000000 cycles:  234772613 heartbeat IPC: 0.52856 cumulative IPC: 0.40602 (Simulation time: 0 hr 5 min 30 sec) 
Heartbeat CPU  0 instructions:  168000000 cycles:  236667422 heartbeat IPC: 0.52776 cumulative IPC: 0.40741 (Simulation time: 0 hr 5 min 32 sec) 
Heartbeat CPU  0 instructions:  169000001 cycles:  238404859 heartbeat IPC: 0.57556 cumulative IPC: 0.40914 (Simulation time: 0 hr 5 min 34 sec) 
Heartbeat CPU  0 instructions:  170000002 cycles:  240262989 heartbeat IPC: 0.53818 cumulative IPC: 0.41055 (Simulation time: 0 hr 5 min 36 sec) 
Heartbeat CPU  0 instructions:  171000001 cycles:  242163551 heartbeat IPC: 0.52616 cumulative IPC: 0.41182 (Simulation time: 0 hr 5 min 38 sec) 
Heartbeat CPU  0 instructions:  172000000 cycles:  243974816 heartbeat IPC: 0.55210 cumulative IPC: 0.41328 (Simulation time: 0 hr 5 min 40 sec) 
Heartbeat CPU  0 instructions:  173000000 cycles:  245758237 heartbeat IPC: 0.56072 cumulative IPC: 0.41477 (Simulation time: 0 hr 5 min 42 sec) 
Heartbeat CPU  0 instructions:  174000003 cycles:  247657308 heartbeat IPC: 0.52657 cumulative IPC: 0.41597 (Simulation time: 0 hr 5 min 44 sec) 
Heartbeat CPU  0 instructions:  175000000 cycles:  254824544 heartbeat IPC: 0.13952 cumulative IPC: 0.40526 (Simulation time: 0 hr 5 min 47 sec) 
Heartbeat CPU  0 instructions:  176000000 cycles:  265099782 heartbeat IPC: 0.09732 cumulative IPC: 0.38906 (Simulation time: 0 hr 5 min 49 sec) 
Heartbeat CPU  0 instructions:  177000001 cycles:  267063908 heartbeat IPC: 0.50913 cumulative IPC: 0.39026 (Simulation time: 0 hr 5 min 51 sec) 
Heartbeat CPU  0 instructions:  178000003 cycles:  269111905 heartbeat IPC: 0.48828 cumulative IPC: 0.39126 (Simulation time: 0 hr 5 min 53 sec) 
Heartbeat CPU  0 instructions:  179000002 cycles:  271018111 heartbeat IPC: 0.52460 cumulative IPC: 0.39253 (Simulation time: 0 hr 5 min 55 sec) 
Heartbeat CPU  0 instructions:  180000000 cycles:  272903552 heartbeat IPC: 0.53038 cumulative IPC: 0.39381 (Simulation time: 0 hr 5 min 58 sec) 
Heartbeat CPU  0 instructions:  181000003 cycles:  274816539 heartbeat IPC: 0.52274 cumulative IPC: 0.39501 (Simulation time: 0 hr 6 min 0 sec) 
Heartbeat CPU  0 instructions:  182000003 cycles:  276645579 heartbeat IPC: 0.54673 cumulative IPC: 0.39635 (Simulation time: 0 hr 6 min 2 sec) 
Heartbeat CPU  0 instructions:  183000000 cycles:  278457034 heartbeat IPC: 0.55204 cumulative IPC: 0.39770 (Simulation time: 0 hr 6 min 4 sec) 
Heartbeat CPU  0 instructions:  184000000 cycles:  280368594 heartbeat IPC: 0.52313 cumulative IPC: 0.39884 (Simulation time: 0 hr 6 min 6 sec) 
Heartbeat CPU  0 instructions:  185000002 cycles:  282269734 heartbeat IPC: 0.52600 cumulative IPC: 0.39998 (Simulation time: 0 hr 6 min 8 sec) 
Heartbeat CPU  0 instructions:  186000001 cycles:  284031079 heartbeat IPC: 0.56775 cumulative IPC: 0.40136 (Simulation time: 0 hr 6 min 10 sec) 
Heartbeat CPU  0 instructions:  187000000 cycles:  285930648 heartbeat IPC: 0.52643 cumulative IPC: 0.40246 (Simulation time: 0 hr 6 min 12 sec) 
Heartbeat CPU  0 instructions:  188000000 cycles:  287842294 heartbeat IPC: 0.52311 cumulative IPC: 0.40351 (Simulation time: 0 hr 6 min 15 sec) 
Heartbeat CPU  0 instructions:  189000000 cycles:  289614482 heartbeat IPC: 0.56427 cumulative IPC: 0.40481 (Simulation time: 0 hr 6 min 17 sec) 
Heartbeat CPU  0 instructions:  190000000 cycles:  291483506 heartbeat IPC: 0.53504 cumulative IPC: 0.40591 (Simulation time: 0 hr 6 min 19 sec) 
Heartbeat CPU  0 instructions:  191000000 cycles:  293396895 heartbeat IPC: 0.52263 cumulative IPC: 0.40691 (Simulation time: 0 hr 6 min 21 sec) 
Heartbeat CPU  0 instructions:  192000000 cycles:  295241623 heartbeat IPC: 0.54209 cumulative IPC: 0.40801 (Simulation time: 0 hr 6 min 23 sec) 
Heartbeat CPU  0 instructions:  193000001 cycles:  297038614 heartbeat IPC: 0.55649 cumulative IPC: 0.40919 (Simulation time: 0 hr 6 min 25 sec) 
Heartbeat CPU  0 instructions:  194000000 cycles:  298952690 heartbeat IPC: 0.52244 cumulative IPC: 0.41013 (Simulation time: 0 hr 6 min 27 sec) 
Heartbeat CPU  0 instructions:  195000002 cycles:  300853325 heartbeat IPC: 0.52614 cumulative IPC: 0.41109 (Simulation time: 0 hr 6 min 30 sec) 
Heartbeat CPU  0 instructions:  196000000 cycles:  302609142 heartbeat IPC: 0.56953 cumulative IPC: 0.41228 (Simulation time: 0 hr 6 min 32 sec) 
Heartbeat CPU  0 instructions:  197000000 cycles:  304619415 heartbeat IPC: 0.49744 cumulative IPC: 0.41301 (Simulation time: 0 hr 6 min 34 sec) 
Heartbeat CPU  0 instructions:  198000003 cycles:  318913374 heartbeat IPC: 0.06996 cumulative IPC: 0.39333 (Simulation time: 0 hr 6 min 36 sec) 
Heartbeat CPU  0 instructions:  199000001 cycles:  322020855 heartbeat IPC: 0.32180 cumulative IPC: 0.39245 (Simulation time: 0 hr 6 min 39 sec) 
Heartbeat CPU  0 instructions:  200000000 cycles:  323893444 heartbeat IPC: 0.53402 cumulative IPC: 0.39349 (Simulation time: 0 hr 6 min 41 sec) 
Finished CPU 0 instructions: 100000000 cycles: 254135523 cumulative IPC: 0.39349 (Simulation time: 0 hr 6 min 41 sec) 

ChampSim completed all CPUs

[ROI Statistics]
Core_0_instructions 100000000
Core_0_cycles 254135523
Core_0_IPC 0.39349

Core_0_branch_prediction_accuracy 99.16976
Core_0_branch_MPKI 0.01138
Core_0_average_ROB_occupancy_at_mispredict 253.39016

Core_0_L1D_total_access 83737654
Core_0_L1D_total_hit 82893105
Core_0_L1D_total_miss 844549
Core_0_L1D_loads 34101543
Core_0_L1D_load_hit 34071178
Core_0_L1D_load_miss 30365
Core_0_L1D_RFOs 16677622
Core_0_L1D_RFO_hit 16513092
Core_0_L1D_RFO_miss 164530
Core_0_L1D_prefetches 32958489
Core_0_L1D_prefetch_hit 32308835
Core_0_L1D_prefetch_miss 649654
Core_0_L1D_writebacks 0
Core_0_L1D_writeback_hit 0
Core_0_L1D_writeback_miss 0
Core_0_L1D_prefetch_requested 81149780
Core_0_L1D_prefetch_issued 78621238
Core_0_L1D_prefetch_useful 1250478
Core_0_L1D_prefetch_useless 37779
Core_0_L1D_prefetch_late 1547
Core_0_L1D_average_miss_latency 375229.23243

Core_0_L1I_total_access 26515210
Core_0_L1I_total_hit 26515210
Core_0_L1I_total_miss 0
Core_0_L1I_loads 26515210
Core_0_L1I_load_hit 26515210
Core_0_L1I_load_miss 0
Core_0_L1I_RFOs 0
Core_0_L1I_RFO_hit 0
Core_0_L1I_RFO_miss 0
Core_0_L1I_prefetches 0
Core_0_L1I_prefetch_hit 0
Core_0_L1I_prefetch_miss 0
Core_0_L1I_writebacks 0
Core_0_L1I_writeback_hit 0
Core_0_L1I_writeback_miss 0
Core_0_L1I_prefetch_requested 0
Core_0_L1I_prefetch_issued 0
Core_0_L1I_prefetch_useful 0
Core_0_L1I_prefetch_useless 0
Core_0_L1I_prefetch_late 0
Core_0_L1I_average_miss_latency -nan

Core_0_L2C_total_access 2638412
Core_0_L2C_total_hit 2094835
Core_0_L2C_total_miss 543577
Core_0_L2C_loads 28848
Core_0_L2C_load_hit 22489
Core_0_L2C_load_miss 6359
Core_0_L2C_RFOs 164433
Core_0_L2C_RFO_hit 350
Core_0_L2C_RFO_miss 164083
Core_0_L2C_prefetches 2274789
Core_0_L2C_prefetch_hit 1901865
Core_0_L2C_prefetch_miss 372924
Core_0_L2C_writebacks 170342
Core_0_L2C_writeback_hit 170131
Core_0_L2C_writeback_miss 211
Core_0_L2C_prefetch_requested 3366859
Core_0_L2C_prefetch_issued 3224069
Core_0_L2C_prefetch_useful 14328
Core_0_L2C_prefetch_useless 705302
Core_0_L2C_prefetch_late 0
Core_0_L2C_average_miss_latency 310.63544

Core_0_LLC_total_access 715667
Core_0_LLC_total_hit 172071
Core_0_LLC_total_miss 543596
Core_0_LLC_loads 6359
Core_0_LLC_load_hit 3
Core_0_LLC_load_miss 6356
Core_0_LLC_RFOs 164083
Core_0_LLC_RFO_hit 2
Core_0_LLC_RFO_miss 164081
Core_0_LLC_prefetches 381324
Core_0_LLC_prefetch_hit 8383
Core_0_LLC_prefetch_miss 372941
Core_0_LLC_writebacks 163901
Core_0_LLC_writeback_hit 163683
Core_0_LLC_writeback_miss 218
Core_0_LLC_prefetch_requested 0
Core_0_LLC_prefetch_issued 0
Core_0_LLC_prefetch_useful 4
Core_0_LLC_prefetch_useless 707394
Core_0_LLC_prefetch_late 0
Core_0_LLC_average_miss_latency 244.08071

Core_0_major_page_fault 0
Core_0_minor_page_fault 8761

CPU 0 L1D next line prefetcher final stats
CPU 0 L2C PC-based stride prefetcher final stats
Channel_0_RQ_row_buffer_hit 142614
Channel_0_RQ_row_buffer_miss 400764
Channel_0_WQ_row_buffer_hit 20460
Channel_0_WQ_row_buffer_miss 135151
Channel_0_WQ_full 0
Channel_0_dbus_congested 208235

avg_congested_cycle 10
