*************************************************
   ChampSim Multicore Out-of-Order Simulator
   Last compiled: Dec 22 2023 17:57:55
*************************************************

trace_0 ./test_trace/436.cactusADM-1804B.champsimtrace.xz
CPU 0 L2C IP-based stride prefetcher
Initialize SHIP state
LLC Next Line Prefetcher
warmup_instructions 100000000
simulation_instructions 100000000
champsim_seed 271

num_cpus 1
cpu_freq 4000
dram_io_freq 2400
page_size 4096
block_size 64
max_read_per_cycle 8
max_fill_per_cycle 1
dram_channels 1
dram_ranks 1
dram_banks 8
dram_rows 65536
dram_columns 128
dram_row_size 8
dram_size 4096
dram_pages 1048576

fetch_width 6
decode_width 6
exec_width 4
lq_width 2
sq_width 2
retire_width 4
scheduler_size 128
branch_mispredict_penalty 20
rob_size 256
lq_size 72
sq_size 56
num_instr_destinations_sparc 4
num_instr_destinations 2
num_instr_sources 4

itlb_set 16
itlb_way 8
itlb_rq_size 16
itlb_wq_size 16
itlb_pq_size 0
itlb_mshr_size 8
itlb_latency 1

dtlb_set 16
dtlb_way 4
dtlb_rq_size 16
dtlb_wq_size 16
dtlb_pq_size 0
dtlb_mshr_size 8
dtlb_latency 1

stlb_set 128
stlb_way 12
stlb_rq_size 32
stlb_wq_size 32
stlb_pq_size 0
stlb_mshr_size 16
stlb_latency 8

l1i_size 32
l1i_set 64
l1i_way 8
l1i_rq_size 64
l1i_wq_size 64
l1i_pq_size 8
l1i_mshr_size 8
l1i_latency 1

l1d_size 32
l1d_set 64
l1d_way 8
l1d_rq_size 64
l1d_wq_size 64
l1d_pq_size 8
l1d_mshr_size 16
l1d_latency 4

l2c_size 512
l2c_set 1024
l2c_way 8
l2c_rq_size 32
l2c_wq_size 32
l2c_pq_size 16
l2c_mshr_size 32
l2c_latency 10

llc_size 2048
llc_set 2048
llc_way 16
llc_rq_size 32
llc_wq_size 32
llc_pq_size 32
llc_mshr_size 64
llc_latency 20

dram_channel_width 8
dram_wq_size 64
dram_rq_size 64
tRP 15
tRCD 15
tCAS 12.5
dram_dbus_turn_around_time 30
dram_write_high_wm 56
dram_write_low_wm 48
min_dram_writes_per_switch 16
dram_mtps 2400
dram_dbus_return_time 13


Heartbeat CPU  0 instructions:    1000000 cycles:     702369 heartbeat IPC: 1.42375 cumulative IPC: 1.42375 (Simulation time: 0 hr 0 min 2 sec) 
Heartbeat CPU  0 instructions:    2000000 cycles:    1404556 heartbeat IPC: 1.42412 cumulative IPC: 1.42394 (Simulation time: 0 hr 0 min 3 sec) 
Heartbeat CPU  0 instructions:    3000000 cycles:    2106847 heartbeat IPC: 1.42391 cumulative IPC: 1.42393 (Simulation time: 0 hr 0 min 5 sec) 
Heartbeat CPU  0 instructions:    4000000 cycles:    2809163 heartbeat IPC: 1.42386 cumulative IPC: 1.42391 (Simulation time: 0 hr 0 min 7 sec) 
Heartbeat CPU  0 instructions:    5000000 cycles:    3511354 heartbeat IPC: 1.42411 cumulative IPC: 1.42395 (Simulation time: 0 hr 0 min 9 sec) 
Heartbeat CPU  0 instructions:    6000000 cycles:    4213672 heartbeat IPC: 1.42386 cumulative IPC: 1.42394 (Simulation time: 0 hr 0 min 10 sec) 
Heartbeat CPU  0 instructions:    7000001 cycles:    4916060 heartbeat IPC: 1.42372 cumulative IPC: 1.42390 (Simulation time: 0 hr 0 min 12 sec) 
Heartbeat CPU  0 instructions:    8000000 cycles:    5618162 heartbeat IPC: 1.42429 cumulative IPC: 1.42395 (Simulation time: 0 hr 0 min 14 sec) 
Heartbeat CPU  0 instructions:    9000001 cycles:    6320656 heartbeat IPC: 1.42350 cumulative IPC: 1.42390 (Simulation time: 0 hr 0 min 16 sec) 
Heartbeat CPU  0 instructions:   10000000 cycles:    7022824 heartbeat IPC: 1.42416 cumulative IPC: 1.42393 (Simulation time: 0 hr 0 min 17 sec) 
Heartbeat CPU  0 instructions:   11000002 cycles:    7725032 heartbeat IPC: 1.42408 cumulative IPC: 1.42394 (Simulation time: 0 hr 0 min 19 sec) 
Heartbeat CPU  0 instructions:   12000000 cycles:    8427158 heartbeat IPC: 1.42424 cumulative IPC: 1.42397 (Simulation time: 0 hr 0 min 21 sec) 
Heartbeat CPU  0 instructions:   13000000 cycles:    9129693 heartbeat IPC: 1.42342 cumulative IPC: 1.42393 (Simulation time: 0 hr 0 min 23 sec) 
Heartbeat CPU  0 instructions:   14000002 cycles:    9831947 heartbeat IPC: 1.42399 cumulative IPC: 1.42393 (Simulation time: 0 hr 0 min 25 sec) 
Heartbeat CPU  0 instructions:   15000002 cycles:   10533860 heartbeat IPC: 1.42468 cumulative IPC: 1.42398 (Simulation time: 0 hr 0 min 26 sec) 
Heartbeat CPU  0 instructions:   16000000 cycles:   11236387 heartbeat IPC: 1.42343 cumulative IPC: 1.42395 (Simulation time: 0 hr 0 min 28 sec) 
Heartbeat CPU  0 instructions:   17000000 cycles:   11938927 heartbeat IPC: 1.42341 cumulative IPC: 1.42391 (Simulation time: 0 hr 0 min 30 sec) 
Heartbeat CPU  0 instructions:   18000001 cycles:   12599489 heartbeat IPC: 1.51386 cumulative IPC: 1.42863 (Simulation time: 0 hr 0 min 32 sec) 
Heartbeat CPU  0 instructions:   19000000 cycles:   13234009 heartbeat IPC: 1.57599 cumulative IPC: 1.43569 (Simulation time: 0 hr 0 min 33 sec) 
Heartbeat CPU  0 instructions:   20000000 cycles:   13936545 heartbeat IPC: 1.42341 cumulative IPC: 1.43508 (Simulation time: 0 hr 0 min 35 sec) 
Heartbeat CPU  0 instructions:   21000000 cycles:   14638905 heartbeat IPC: 1.42377 cumulative IPC: 1.43453 (Simulation time: 0 hr 0 min 37 sec) 
Heartbeat CPU  0 instructions:   22000002 cycles:   15341193 heartbeat IPC: 1.42392 cumulative IPC: 1.43405 (Simulation time: 0 hr 0 min 39 sec) 
Heartbeat CPU  0 instructions:   23000001 cycles:   16043558 heartbeat IPC: 1.42376 cumulative IPC: 1.43360 (Simulation time: 0 hr 0 min 40 sec) 
Heartbeat CPU  0 instructions:   24000000 cycles:   16745651 heartbeat IPC: 1.42431 cumulative IPC: 1.43321 (Simulation time: 0 hr 0 min 42 sec) 
Heartbeat CPU  0 instructions:   25000001 cycles:   17447941 heartbeat IPC: 1.42391 cumulative IPC: 1.43283 (Simulation time: 0 hr 0 min 44 sec) 
Heartbeat CPU  0 instructions:   26000003 cycles:   18150557 heartbeat IPC: 1.42326 cumulative IPC: 1.43246 (Simulation time: 0 hr 0 min 46 sec) 
Heartbeat CPU  0 instructions:   27000003 cycles:   18852732 heartbeat IPC: 1.42415 cumulative IPC: 1.43215 (Simulation time: 0 hr 0 min 48 sec) 
Heartbeat CPU  0 instructions:   28000000 cycles:   19554860 heartbeat IPC: 1.42424 cumulative IPC: 1.43187 (Simulation time: 0 hr 0 min 49 sec) 
Heartbeat CPU  0 instructions:   29000000 cycles:   20257261 heartbeat IPC: 1.42369 cumulative IPC: 1.43159 (Simulation time: 0 hr 0 min 51 sec) 
Heartbeat CPU  0 instructions:   30000003 cycles:   20959595 heartbeat IPC: 1.42383 cumulative IPC: 1.43133 (Simulation time: 0 hr 0 min 53 sec) 
Heartbeat CPU  0 instructions:   31000003 cycles:   21661546 heartbeat IPC: 1.42460 cumulative IPC: 1.43111 (Simulation time: 0 hr 0 min 55 sec) 
Heartbeat CPU  0 instructions:   32000000 cycles:   22363610 heartbeat IPC: 1.42437 cumulative IPC: 1.43090 (Simulation time: 0 hr 0 min 56 sec) 
Heartbeat CPU  0 instructions:   33000001 cycles:   23066343 heartbeat IPC: 1.42302 cumulative IPC: 1.43066 (Simulation time: 0 hr 0 min 58 sec) 
Heartbeat CPU  0 instructions:   34000000 cycles:   23768448 heartbeat IPC: 1.42429 cumulative IPC: 1.43047 (Simulation time: 0 hr 1 min 0 sec) 
Heartbeat CPU  0 instructions:   35000001 cycles:   24470676 heartbeat IPC: 1.42404 cumulative IPC: 1.43028 (Simulation time: 0 hr 1 min 2 sec) 
Heartbeat CPU  0 instructions:   36000000 cycles:   25172924 heartbeat IPC: 1.42400 cumulative IPC: 1.43011 (Simulation time: 0 hr 1 min 4 sec) 
Heartbeat CPU  0 instructions:   37000000 cycles:   25875489 heartbeat IPC: 1.42336 cumulative IPC: 1.42992 (Simulation time: 0 hr 1 min 5 sec) 
Heartbeat CPU  0 instructions:   38000001 cycles:   26577680 heartbeat IPC: 1.42412 cumulative IPC: 1.42977 (Simulation time: 0 hr 1 min 7 sec) 
Heartbeat CPU  0 instructions:   39000000 cycles:   27279925 heartbeat IPC: 1.42400 cumulative IPC: 1.42962 (Simulation time: 0 hr 1 min 9 sec) 
Heartbeat CPU  0 instructions:   40000000 cycles:   27982153 heartbeat IPC: 1.42404 cumulative IPC: 1.42948 (Simulation time: 0 hr 1 min 11 sec) 
Heartbeat CPU  0 instructions:   41000000 cycles:   28586364 heartbeat IPC: 1.65505 cumulative IPC: 1.43425 (Simulation time: 0 hr 1 min 12 sec) 
Heartbeat CPU  0 instructions:   42000002 cycles:   29277635 heartbeat IPC: 1.44661 cumulative IPC: 1.43454 (Simulation time: 0 hr 1 min 14 sec) 
Heartbeat CPU  0 instructions:   43000002 cycles:   29980023 heartbeat IPC: 1.42371 cumulative IPC: 1.43429 (Simulation time: 0 hr 1 min 16 sec) 
Heartbeat CPU  0 instructions:   44000000 cycles:   30682440 heartbeat IPC: 1.42365 cumulative IPC: 1.43404 (Simulation time: 0 hr 1 min 18 sec) 
Heartbeat CPU  0 instructions:   45000003 cycles:   31384710 heartbeat IPC: 1.42396 cumulative IPC: 1.43382 (Simulation time: 0 hr 1 min 20 sec) 
Heartbeat CPU  0 instructions:   46000003 cycles:   32086895 heartbeat IPC: 1.42413 cumulative IPC: 1.43361 (Simulation time: 0 hr 1 min 21 sec) 
Heartbeat CPU  0 instructions:   47000000 cycles:   32789071 heartbeat IPC: 1.42414 cumulative IPC: 1.43340 (Simulation time: 0 hr 1 min 23 sec) 
Heartbeat CPU  0 instructions:   48000000 cycles:   33491667 heartbeat IPC: 1.42329 cumulative IPC: 1.43319 (Simulation time: 0 hr 1 min 25 sec) 
Heartbeat CPU  0 instructions:   49000000 cycles:   34193656 heartbeat IPC: 1.42452 cumulative IPC: 1.43301 (Simulation time: 0 hr 1 min 27 sec) 
Heartbeat CPU  0 instructions:   50000000 cycles:   34895960 heartbeat IPC: 1.42388 cumulative IPC: 1.43283 (Simulation time: 0 hr 1 min 28 sec) 
Heartbeat CPU  0 instructions:   51000000 cycles:   35598445 heartbeat IPC: 1.42352 cumulative IPC: 1.43265 (Simulation time: 0 hr 1 min 30 sec) 
Heartbeat CPU  0 instructions:   52000000 cycles:   36300612 heartbeat IPC: 1.42416 cumulative IPC: 1.43248 (Simulation time: 0 hr 1 min 32 sec) 
Heartbeat CPU  0 instructions:   53000000 cycles:   37002987 heartbeat IPC: 1.42374 cumulative IPC: 1.43232 (Simulation time: 0 hr 1 min 34 sec) 
Heartbeat CPU  0 instructions:   54000001 cycles:   37705054 heartbeat IPC: 1.42437 cumulative IPC: 1.43217 (Simulation time: 0 hr 1 min 36 sec) 
Heartbeat CPU  0 instructions:   55000001 cycles:   38407315 heartbeat IPC: 1.42397 cumulative IPC: 1.43202 (Simulation time: 0 hr 1 min 37 sec) 
Heartbeat CPU  0 instructions:   56000000 cycles:   39109741 heartbeat IPC: 1.42364 cumulative IPC: 1.43187 (Simulation time: 0 hr 1 min 39 sec) 
Heartbeat CPU  0 instructions:   57000000 cycles:   39812196 heartbeat IPC: 1.42358 cumulative IPC: 1.43172 (Simulation time: 0 hr 1 min 41 sec) 
Heartbeat CPU  0 instructions:   58000003 cycles:   40514496 heartbeat IPC: 1.42390 cumulative IPC: 1.43159 (Simulation time: 0 hr 1 min 43 sec) 
Heartbeat CPU  0 instructions:   59000000 cycles:   41216625 heartbeat IPC: 1.42424 cumulative IPC: 1.43146 (Simulation time: 0 hr 1 min 44 sec) 
Heartbeat CPU  0 instructions:   60000000 cycles:   41919039 heartbeat IPC: 1.42366 cumulative IPC: 1.43133 (Simulation time: 0 hr 1 min 46 sec) 
Heartbeat CPU  0 instructions:   61000000 cycles:   42621204 heartbeat IPC: 1.42417 cumulative IPC: 1.43121 (Simulation time: 0 hr 1 min 48 sec) 
Heartbeat CPU  0 instructions:   62000002 cycles:   43323437 heartbeat IPC: 1.42403 cumulative IPC: 1.43110 (Simulation time: 0 hr 1 min 50 sec) 
Heartbeat CPU  0 instructions:   63000000 cycles:   43970197 heartbeat IPC: 1.54617 cumulative IPC: 1.43279 (Simulation time: 0 hr 1 min 51 sec) 
Heartbeat CPU  0 instructions:   64000000 cycles:   44620827 heartbeat IPC: 1.53697 cumulative IPC: 1.43431 (Simulation time: 0 hr 1 min 53 sec) 
Heartbeat CPU  0 instructions:   65000000 cycles:   45322873 heartbeat IPC: 1.42441 cumulative IPC: 1.43415 (Simulation time: 0 hr 1 min 55 sec) 
Heartbeat CPU  0 instructions:   66000001 cycles:   46024945 heartbeat IPC: 1.42436 cumulative IPC: 1.43401 (Simulation time: 0 hr 1 min 57 sec) 
Heartbeat CPU  0 instructions:   67000002 cycles:   46727032 heartbeat IPC: 1.42433 cumulative IPC: 1.43386 (Simulation time: 0 hr 1 min 59 sec) 
Heartbeat CPU  0 instructions:   68000000 cycles:   47429407 heartbeat IPC: 1.42374 cumulative IPC: 1.43371 (Simulation time: 0 hr 2 min 0 sec) 
Heartbeat CPU  0 instructions:   69000000 cycles:   48131607 heartbeat IPC: 1.42410 cumulative IPC: 1.43357 (Simulation time: 0 hr 2 min 2 sec) 
Heartbeat CPU  0 instructions:   70000002 cycles:   48833722 heartbeat IPC: 1.42427 cumulative IPC: 1.43344 (Simulation time: 0 hr 2 min 4 sec) 
Heartbeat CPU  0 instructions:   71000003 cycles:   49536321 heartbeat IPC: 1.42329 cumulative IPC: 1.43329 (Simulation time: 0 hr 2 min 6 sec) 
Heartbeat CPU  0 instructions:   72000000 cycles:   50238370 heartbeat IPC: 1.42440 cumulative IPC: 1.43317 (Simulation time: 0 hr 2 min 7 sec) 
Heartbeat CPU  0 instructions:   73000001 cycles:   50940504 heartbeat IPC: 1.42423 cumulative IPC: 1.43304 (Simulation time: 0 hr 2 min 9 sec) 
Heartbeat CPU  0 instructions:   74000003 cycles:   51642842 heartbeat IPC: 1.42382 cumulative IPC: 1.43292 (Simulation time: 0 hr 2 min 11 sec) 
Heartbeat CPU  0 instructions:   75000002 cycles:   52345493 heartbeat IPC: 1.42318 cumulative IPC: 1.43279 (Simulation time: 0 hr 2 min 13 sec) 
Heartbeat CPU  0 instructions:   76000000 cycles:   53047672 heartbeat IPC: 1.42414 cumulative IPC: 1.43267 (Simulation time: 0 hr 2 min 15 sec) 
Heartbeat CPU  0 instructions:   77000003 cycles:   53750266 heartbeat IPC: 1.42330 cumulative IPC: 1.43255 (Simulation time: 0 hr 2 min 16 sec) 
Heartbeat CPU  0 instructions:   78000001 cycles:   54452748 heartbeat IPC: 1.42352 cumulative IPC: 1.43243 (Simulation time: 0 hr 2 min 18 sec) 
Heartbeat CPU  0 instructions:   79000001 cycles:   55154647 heartbeat IPC: 1.42471 cumulative IPC: 1.43234 (Simulation time: 0 hr 2 min 20 sec) 
Heartbeat CPU  0 instructions:   80000000 cycles:   55856657 heartbeat IPC: 1.42448 cumulative IPC: 1.43224 (Simulation time: 0 hr 2 min 22 sec) 
Heartbeat CPU  0 instructions:   81000002 cycles:   56559021 heartbeat IPC: 1.42377 cumulative IPC: 1.43213 (Simulation time: 0 hr 2 min 24 sec) 
Heartbeat CPU  0 instructions:   82000003 cycles:   57261253 heartbeat IPC: 1.42403 cumulative IPC: 1.43203 (Simulation time: 0 hr 2 min 25 sec) 
Heartbeat CPU  0 instructions:   83000001 cycles:   57963488 heartbeat IPC: 1.42402 cumulative IPC: 1.43194 (Simulation time: 0 hr 2 min 27 sec) 
Heartbeat CPU  0 instructions:   84000000 cycles:   58665686 heartbeat IPC: 1.42410 cumulative IPC: 1.43184 (Simulation time: 0 hr 2 min 29 sec) 
Heartbeat CPU  0 instructions:   85000000 cycles:   59354188 heartbeat IPC: 1.45243 cumulative IPC: 1.43208 (Simulation time: 0 hr 2 min 31 sec) 
Heartbeat CPU  0 instructions:   86000002 cycles:   59962472 heartbeat IPC: 1.64397 cumulative IPC: 1.43423 (Simulation time: 0 hr 2 min 32 sec) 
Heartbeat CPU  0 instructions:   87000002 cycles:   60664931 heartbeat IPC: 1.42357 cumulative IPC: 1.43411 (Simulation time: 0 hr 2 min 34 sec) 
Heartbeat CPU  0 instructions:   88000000 cycles:   61367565 heartbeat IPC: 1.42321 cumulative IPC: 1.43398 (Simulation time: 0 hr 2 min 36 sec) 
Heartbeat CPU  0 instructions:   89000001 cycles:   62069589 heartbeat IPC: 1.42445 cumulative IPC: 1.43387 (Simulation time: 0 hr 2 min 38 sec) 
Heartbeat CPU  0 instructions:   90000003 cycles:   62771922 heartbeat IPC: 1.42383 cumulative IPC: 1.43376 (Simulation time: 0 hr 2 min 39 sec) 
Heartbeat CPU  0 instructions:   91000003 cycles:   63474316 heartbeat IPC: 1.42370 cumulative IPC: 1.43365 (Simulation time: 0 hr 2 min 41 sec) 
Heartbeat CPU  0 instructions:   92000000 cycles:   64176545 heartbeat IPC: 1.42403 cumulative IPC: 1.43355 (Simulation time: 0 hr 2 min 43 sec) 
Heartbeat CPU  0 instructions:   93000002 cycles:   64878879 heartbeat IPC: 1.42383 cumulative IPC: 1.43344 (Simulation time: 0 hr 2 min 45 sec) 
Heartbeat CPU  0 instructions:   94000002 cycles:   65580871 heartbeat IPC: 1.42452 cumulative IPC: 1.43334 (Simulation time: 0 hr 2 min 47 sec) 
Heartbeat CPU  0 instructions:   95000003 cycles:   66283037 heartbeat IPC: 1.42417 cumulative IPC: 1.43325 (Simulation time: 0 hr 2 min 48 sec) 
Heartbeat CPU  0 instructions:   96000000 cycles:   66985334 heartbeat IPC: 1.42389 cumulative IPC: 1.43315 (Simulation time: 0 hr 2 min 50 sec) 
Heartbeat CPU  0 instructions:   97000000 cycles:   67687665 heartbeat IPC: 1.42383 cumulative IPC: 1.43305 (Simulation time: 0 hr 2 min 52 sec) 
Heartbeat CPU  0 instructions:   98000002 cycles:   68389836 heartbeat IPC: 1.42416 cumulative IPC: 1.43296 (Simulation time: 0 hr 2 min 54 sec) 
Heartbeat CPU  0 instructions:   99000003 cycles:   69092024 heartbeat IPC: 1.42412 cumulative IPC: 1.43287 (Simulation time: 0 hr 2 min 55 sec) 
Heartbeat CPU  0 instructions:  100000000 cycles:   69794375 heartbeat IPC: 1.42379 cumulative IPC: 1.43278 (Simulation time: 0 hr 2 min 57 sec) 

Warmup complete CPU  0 instructions:  100000001 cycles:   69794395 (Simulation time: 0 hr 2 min 57 sec) 

Heartbeat CPU  0 instructions:  101000000 cycles:   71719070 heartbeat IPC: 0.51956 cumulative IPC: 0.51957 (Simulation time: 0 hr 2 min 59 sec) 
Heartbeat CPU  0 instructions:  102000003 cycles:   73475097 heartbeat IPC: 0.56947 cumulative IPC: 0.54338 (Simulation time: 0 hr 3 min 1 sec) 
Heartbeat CPU  0 instructions:  103000003 cycles:   75341157 heartbeat IPC: 0.53589 cumulative IPC: 0.54086 (Simulation time: 0 hr 3 min 3 sec) 
Heartbeat CPU  0 instructions:  104000000 cycles:   77255147 heartbeat IPC: 0.52247 cumulative IPC: 0.53614 (Simulation time: 0 hr 3 min 5 sec) 
Heartbeat CPU  0 instructions:  105000002 cycles:   79090829 heartbeat IPC: 0.54476 cumulative IPC: 0.53784 (Simulation time: 0 hr 3 min 7 sec) 
Heartbeat CPU  0 instructions:  106000000 cycles:   80886333 heartbeat IPC: 0.55695 cumulative IPC: 0.54093 (Simulation time: 0 hr 3 min 9 sec) 
Heartbeat CPU  0 instructions:  107000003 cycles:   82796869 heartbeat IPC: 0.52341 cumulative IPC: 0.53836 (Simulation time: 0 hr 3 min 11 sec) 
Heartbeat CPU  0 instructions:  108000000 cycles:   93580903 heartbeat IPC: 0.09273 cumulative IPC: 0.33633 (Simulation time: 0 hr 3 min 14 sec) 
Heartbeat CPU  0 instructions:  109000003 cycles:  100381198 heartbeat IPC: 0.14705 cumulative IPC: 0.29424 (Simulation time: 0 hr 3 min 16 sec) 
Heartbeat CPU  0 instructions:  110000001 cycles:  102289350 heartbeat IPC: 0.52407 cumulative IPC: 0.30774 (Simulation time: 0 hr 3 min 18 sec) 
Heartbeat CPU  0 instructions:  111000000 cycles:  104205286 heartbeat IPC: 0.52194 cumulative IPC: 0.31967 (Simulation time: 0 hr 3 min 20 sec) 
Heartbeat CPU  0 instructions:  112000000 cycles:  105971752 heartbeat IPC: 0.56610 cumulative IPC: 0.33170 (Simulation time: 0 hr 3 min 22 sec) 
Heartbeat CPU  0 instructions:  113000000 cycles:  107839903 heartbeat IPC: 0.53529 cumulative IPC: 0.34170 (Simulation time: 0 hr 3 min 24 sec) 
Heartbeat CPU  0 instructions:  114000000 cycles:  109765818 heartbeat IPC: 0.51923 cumulative IPC: 0.35025 (Simulation time: 0 hr 3 min 26 sec) 
Heartbeat CPU  0 instructions:  115000001 cycles:  111599526 heartbeat IPC: 0.54534 cumulative IPC: 0.35881 (Simulation time: 0 hr 3 min 28 sec) 
Heartbeat CPU  0 instructions:  116000000 cycles:  113394137 heartbeat IPC: 0.55722 cumulative IPC: 0.36697 (Simulation time: 0 hr 3 min 30 sec) 
Heartbeat CPU  0 instructions:  117000003 cycles:  115312117 heartbeat IPC: 0.52138 cumulative IPC: 0.37348 (Simulation time: 0 hr 3 min 32 sec) 
Heartbeat CPU  0 instructions:  118000002 cycles:  117214952 heartbeat IPC: 0.52553 cumulative IPC: 0.37958 (Simulation time: 0 hr 3 min 34 sec) 
Heartbeat CPU  0 instructions:  119000002 cycles:  118958908 heartbeat IPC: 0.57341 cumulative IPC: 0.38646 (Simulation time: 0 hr 3 min 36 sec) 
Heartbeat CPU  0 instructions:  120000000 cycles:  120862916 heartbeat IPC: 0.52521 cumulative IPC: 0.39163 (Simulation time: 0 hr 3 min 38 sec) 
Heartbeat CPU  0 instructions:  121000003 cycles:  122777338 heartbeat IPC: 0.52235 cumulative IPC: 0.39635 (Simulation time: 0 hr 3 min 40 sec) 
Heartbeat CPU  0 instructions:  122000002 cycles:  124555617 heartbeat IPC: 0.56234 cumulative IPC: 0.40174 (Simulation time: 0 hr 3 min 42 sec) 
Heartbeat CPU  0 instructions:  123000002 cycles:  126407825 heartbeat IPC: 0.53990 cumulative IPC: 0.40626 (Simulation time: 0 hr 3 min 44 sec) 
Heartbeat CPU  0 instructions:  124000000 cycles:  128325879 heartbeat IPC: 0.52136 cumulative IPC: 0.41004 (Simulation time: 0 hr 3 min 46 sec) 
Heartbeat CPU  0 instructions:  125000000 cycles:  130182385 heartbeat IPC: 0.53865 cumulative IPC: 0.41399 (Simulation time: 0 hr 3 min 48 sec) 
Heartbeat CPU  0 instructions:  126000002 cycles:  131973979 heartbeat IPC: 0.55816 cumulative IPC: 0.41814 (Simulation time: 0 hr 3 min 50 sec) 
Heartbeat CPU  0 instructions:  127000002 cycles:  134009456 heartbeat IPC: 0.49129 cumulative IPC: 0.42046 (Simulation time: 0 hr 3 min 52 sec) 
Heartbeat CPU  0 instructions:  128000000 cycles:  135916325 heartbeat IPC: 0.52442 cumulative IPC: 0.42346 (Simulation time: 0 hr 3 min 54 sec) 
Heartbeat CPU  0 instructions:  129000001 cycles:  137657985 heartbeat IPC: 0.57417 cumulative IPC: 0.42733 (Simulation time: 0 hr 3 min 56 sec) 
Heartbeat CPU  0 instructions:  130000000 cycles:  143194136 heartbeat IPC: 0.18063 cumulative IPC: 0.40872 (Simulation time: 0 hr 3 min 58 sec) 
Heartbeat CPU  0 instructions:  131000003 cycles:  155361840 heartbeat IPC: 0.08219 cumulative IPC: 0.36229 (Simulation time: 0 hr 4 min 1 sec) 
Heartbeat CPU  0 instructions:  132000000 cycles:  157142326 heartbeat IPC: 0.56164 cumulative IPC: 0.36635 (Simulation time: 0 hr 4 min 3 sec) 
Heartbeat CPU  0 instructions:  133000000 cycles:  158996221 heartbeat IPC: 0.53940 cumulative IPC: 0.36995 (Simulation time: 0 hr 4 min 5 sec) 
Heartbeat CPU  0 instructions:  134000000 cycles:  160915693 heartbeat IPC: 0.52098 cumulative IPC: 0.37313 (Simulation time: 0 hr 4 min 7 sec) 
Heartbeat CPU  0 instructions:  135000000 cycles:  162769924 heartbeat IPC: 0.53931 cumulative IPC: 0.37644 (Simulation time: 0 hr 4 min 9 sec) 
Heartbeat CPU  0 instructions:  136000000 cycles:  164548814 heartbeat IPC: 0.56215 cumulative IPC: 0.37993 (Simulation time: 0 hr 4 min 11 sec) 
Heartbeat CPU  0 instructions:  137000002 cycles:  166466735 heartbeat IPC: 0.52140 cumulative IPC: 0.38274 (Simulation time: 0 hr 4 min 13 sec) 
Heartbeat CPU  0 instructions:  138000001 cycles:  168374407 heartbeat IPC: 0.52420 cumulative IPC: 0.38547 (Simulation time: 0 hr 4 min 15 sec) 
Heartbeat CPU  0 instructions:  139000001 cycles:  170116165 heartbeat IPC: 0.57413 cumulative IPC: 0.38875 (Simulation time: 0 hr 4 min 17 sec) 
Heartbeat CPU  0 instructions:  140000000 cycles:  172023144 heartbeat IPC: 0.52439 cumulative IPC: 0.39128 (Simulation time: 0 hr 4 min 19 sec) 
Heartbeat CPU  0 instructions:  141000000 cycles:  173941437 heartbeat IPC: 0.52130 cumulative IPC: 0.39367 (Simulation time: 0 hr 4 min 21 sec) 
Heartbeat CPU  0 instructions:  142000001 cycles:  175735818 heartbeat IPC: 0.55730 cumulative IPC: 0.39645 (Simulation time: 0 hr 4 min 23 sec) 
Heartbeat CPU  0 instructions:  143000001 cycles:  177571085 heartbeat IPC: 0.54488 cumulative IPC: 0.39897 (Simulation time: 0 hr 4 min 25 sec) 
Heartbeat CPU  0 instructions:  144000000 cycles:  179490628 heartbeat IPC: 0.52096 cumulative IPC: 0.40111 (Simulation time: 0 hr 4 min 27 sec) 
Heartbeat CPU  0 instructions:  145000000 cycles:  181363528 heartbeat IPC: 0.53393 cumulative IPC: 0.40334 (Simulation time: 0 hr 4 min 29 sec) 
Heartbeat CPU  0 instructions:  146000002 cycles:  183127848 heartbeat IPC: 0.56679 cumulative IPC: 0.40588 (Simulation time: 0 hr 4 min 31 sec) 
Heartbeat CPU  0 instructions:  147000003 cycles:  185042816 heartbeat IPC: 0.52220 cumulative IPC: 0.40781 (Simulation time: 0 hr 4 min 33 sec) 
Heartbeat CPU  0 instructions:  148000000 cycles:  186950984 heartbeat IPC: 0.52406 cumulative IPC: 0.40971 (Simulation time: 0 hr 4 min 35 sec) 
Heartbeat CPU  0 instructions:  149000002 cycles:  188699613 heartbeat IPC: 0.57188 cumulative IPC: 0.41209 (Simulation time: 0 hr 4 min 37 sec) 
Heartbeat CPU  0 instructions:  150000003 cycles:  190593040 heartbeat IPC: 0.52814 cumulative IPC: 0.41391 (Simulation time: 0 hr 4 min 39 sec) 
Heartbeat CPU  0 instructions:  151000003 cycles:  192506642 heartbeat IPC: 0.52257 cumulative IPC: 0.41561 (Simulation time: 0 hr 4 min 41 sec) 
Heartbeat CPU  0 instructions:  152000000 cycles:  194330093 heartbeat IPC: 0.54841 cumulative IPC: 0.41755 (Simulation time: 0 hr 4 min 43 sec) 
Heartbeat CPU  0 instructions:  153000003 cycles:  207206841 heartbeat IPC: 0.07766 cumulative IPC: 0.38570 (Simulation time: 0 hr 4 min 45 sec) 
Heartbeat CPU  0 instructions:  154000000 cycles:  212179157 heartbeat IPC: 0.20111 cumulative IPC: 0.37925 (Simulation time: 0 hr 4 min 48 sec) 
Heartbeat CPU  0 instructions:  155000000 cycles:  214051762 heartbeat IPC: 0.53402 cumulative IPC: 0.38126 (Simulation time: 0 hr 4 min 50 sec) 
Heartbeat CPU  0 instructions:  156000000 cycles:  215813102 heartbeat IPC: 0.56775 cumulative IPC: 0.38351 (Simulation time: 0 hr 4 min 52 sec) 
Heartbeat CPU  0 instructions:  157000001 cycles:  217728411 heartbeat IPC: 0.52211 cumulative IPC: 0.38531 (Simulation time: 0 hr 4 min 54 sec) 
Heartbeat CPU  0 instructions:  158000001 cycles:  219640019 heartbeat IPC: 0.52312 cumulative IPC: 0.38707 (Simulation time: 0 hr 4 min 56 sec) 
Heartbeat CPU  0 instructions:  159000000 cycles:  221386935 heartbeat IPC: 0.57244 cumulative IPC: 0.38920 (Simulation time: 0 hr 4 min 58 sec) 
Heartbeat CPU  0 instructions:  160000000 cycles:  223283080 heartbeat IPC: 0.52739 cumulative IPC: 0.39091 (Simulation time: 0 hr 5 min 0 sec) 
Heartbeat CPU  0 instructions:  161000003 cycles:  225203611 heartbeat IPC: 0.52069 cumulative IPC: 0.39251 (Simulation time: 0 hr 5 min 2 sec) 
Heartbeat CPU  0 instructions:  162000000 cycles:  227015761 heartbeat IPC: 0.55183 cumulative IPC: 0.39435 (Simulation time: 0 hr 5 min 4 sec) 
Heartbeat CPU  0 instructions:  163000003 cycles:  228836635 heartbeat IPC: 0.54919 cumulative IPC: 0.39612 (Simulation time: 0 hr 5 min 6 sec) 
Heartbeat CPU  0 instructions:  164000000 cycles:  230751971 heartbeat IPC: 0.52210 cumulative IPC: 0.39762 (Simulation time: 0 hr 5 min 8 sec) 
Heartbeat CPU  0 instructions:  165000000 cycles:  232649714 heartbeat IPC: 0.52694 cumulative IPC: 0.39913 (Simulation time: 0 hr 5 min 10 sec) 
Heartbeat CPU  0 instructions:  166000001 cycles:  234395430 heartbeat IPC: 0.57283 cumulative IPC: 0.40097 (Simulation time: 0 hr 5 min 12 sec) 
Heartbeat CPU  0 instructions:  167000000 cycles:  236307970 heartbeat IPC: 0.52286 cumulative IPC: 0.40237 (Simulation time: 0 hr 5 min 14 sec) 
Heartbeat CPU  0 instructions:  168000000 cycles:  238221406 heartbeat IPC: 0.52262 cumulative IPC: 0.40374 (Simulation time: 0 hr 5 min 16 sec) 
Heartbeat CPU  0 instructions:  169000001 cycles:  239978335 heartbeat IPC: 0.56918 cumulative IPC: 0.40544 (Simulation time: 0 hr 5 min 18 sec) 
Heartbeat CPU  0 instructions:  170000002 cycles:  241855488 heartbeat IPC: 0.53272 cumulative IPC: 0.40683 (Simulation time: 0 hr 5 min 20 sec) 
Heartbeat CPU  0 instructions:  171000001 cycles:  243775922 heartbeat IPC: 0.52072 cumulative IPC: 0.40809 (Simulation time: 0 hr 5 min 22 sec) 
Heartbeat CPU  0 instructions:  172000000 cycles:  245607000 heartbeat IPC: 0.54613 cumulative IPC: 0.40953 (Simulation time: 0 hr 5 min 24 sec) 
Heartbeat CPU  0 instructions:  173000000 cycles:  247409880 heartbeat IPC: 0.55467 cumulative IPC: 0.41100 (Simulation time: 0 hr 5 min 26 sec) 
Heartbeat CPU  0 instructions:  174000003 cycles:  249329262 heartbeat IPC: 0.52100 cumulative IPC: 0.41218 (Simulation time: 0 hr 5 min 28 sec) 
Heartbeat CPU  0 instructions:  175000000 cycles:  256538001 heartbeat IPC: 0.13872 cumulative IPC: 0.40162 (Simulation time: 0 hr 5 min 30 sec) 
Heartbeat CPU  0 instructions:  176000000 cycles:  266878249 heartbeat IPC: 0.09671 cumulative IPC: 0.38562 (Simulation time: 0 hr 5 min 33 sec) 
Heartbeat CPU  0 instructions:  177000001 cycles:  268862115 heartbeat IPC: 0.50407 cumulative IPC: 0.38680 (Simulation time: 0 hr 5 min 35 sec) 
Heartbeat CPU  0 instructions:  178000003 cycles:  270929238 heartbeat IPC: 0.48377 cumulative IPC: 0.38780 (Simulation time: 0 hr 5 min 37 sec) 
Heartbeat CPU  0 instructions:  179000002 cycles:  272854735 heartbeat IPC: 0.51935 cumulative IPC: 0.38905 (Simulation time: 0 hr 5 min 39 sec) 
Heartbeat CPU  0 instructions:  180000000 cycles:  274759749 heartbeat IPC: 0.52493 cumulative IPC: 0.39031 (Simulation time: 0 hr 5 min 41 sec) 
Heartbeat CPU  0 instructions:  181000003 cycles:  276692652 heartbeat IPC: 0.51736 cumulative IPC: 0.39150 (Simulation time: 0 hr 5 min 43 sec) 
Heartbeat CPU  0 instructions:  182000003 cycles:  278541134 heartbeat IPC: 0.54098 cumulative IPC: 0.39282 (Simulation time: 0 hr 5 min 45 sec) 
Heartbeat CPU  0 instructions:  183000000 cycles:  280373037 heartbeat IPC: 0.54588 cumulative IPC: 0.39415 (Simulation time: 0 hr 5 min 47 sec) 
Heartbeat CPU  0 instructions:  184000000 cycles:  282304578 heartbeat IPC: 0.51772 cumulative IPC: 0.39528 (Simulation time: 0 hr 5 min 49 sec) 
Heartbeat CPU  0 instructions:  185000002 cycles:  284224750 heartbeat IPC: 0.52079 cumulative IPC: 0.39640 (Simulation time: 0 hr 5 min 51 sec) 
Heartbeat CPU  0 instructions:  186000001 cycles:  286004112 heartbeat IPC: 0.56200 cumulative IPC: 0.39776 (Simulation time: 0 hr 5 min 53 sec) 
Heartbeat CPU  0 instructions:  187000000 cycles:  287923721 heartbeat IPC: 0.52094 cumulative IPC: 0.39885 (Simulation time: 0 hr 5 min 55 sec) 
Heartbeat CPU  0 instructions:  188000000 cycles:  289855878 heartbeat IPC: 0.51756 cumulative IPC: 0.39989 (Simulation time: 0 hr 5 min 57 sec) 
Heartbeat CPU  0 instructions:  189000000 cycles:  291646875 heartbeat IPC: 0.55835 cumulative IPC: 0.40117 (Simulation time: 0 hr 5 min 59 sec) 
Heartbeat CPU  0 instructions:  190000000 cycles:  293536253 heartbeat IPC: 0.52927 cumulative IPC: 0.40225 (Simulation time: 0 hr 6 min 1 sec) 
Heartbeat CPU  0 instructions:  191000000 cycles:  295469648 heartbeat IPC: 0.51722 cumulative IPC: 0.40323 (Simulation time: 0 hr 6 min 3 sec) 
Heartbeat CPU  0 instructions:  192000000 cycles:  297332668 heartbeat IPC: 0.53676 cumulative IPC: 0.40433 (Simulation time: 0 hr 6 min 5 sec) 
Heartbeat CPU  0 instructions:  193000001 cycles:  299149201 heartbeat IPC: 0.55050 cumulative IPC: 0.40549 (Simulation time: 0 hr 6 min 7 sec) 
Heartbeat CPU  0 instructions:  194000000 cycles:  301082795 heartbeat IPC: 0.51717 cumulative IPC: 0.40642 (Simulation time: 0 hr 6 min 9 sec) 
Heartbeat CPU  0 instructions:  195000002 cycles:  303002721 heartbeat IPC: 0.52085 cumulative IPC: 0.40736 (Simulation time: 0 hr 6 min 11 sec) 
Heartbeat CPU  0 instructions:  196000000 cycles:  304778130 heartbeat IPC: 0.56325 cumulative IPC: 0.40854 (Simulation time: 0 hr 6 min 13 sec) 
Heartbeat CPU  0 instructions:  197000000 cycles:  306807994 heartbeat IPC: 0.49264 cumulative IPC: 0.40926 (Simulation time: 0 hr 6 min 15 sec) 
Heartbeat CPU  0 instructions:  198000003 cycles:  321189726 heartbeat IPC: 0.06953 cumulative IPC: 0.38982 (Simulation time: 0 hr 6 min 18 sec) 
Heartbeat CPU  0 instructions:  199000001 cycles:  324321098 heartbeat IPC: 0.31935 cumulative IPC: 0.38896 (Simulation time: 0 hr 6 min 20 sec) 
Heartbeat CPU  0 instructions:  200000000 cycles:  326213418 heartbeat IPC: 0.52845 cumulative IPC: 0.38999 (Simulation time: 0 hr 6 min 22 sec) 
Finished CPU 0 instructions: 100000000 cycles: 256419051 cumulative IPC: 0.38999 (Simulation time: 0 hr 6 min 22 sec) 

ChampSim completed all CPUs

[ROI Statistics]
Core_0_instructions 100000000
Core_0_cycles 256419051
Core_0_IPC 0.38999

Core_0_branch_prediction_accuracy 99.16976
Core_0_branch_MPKI 0.01138
Core_0_average_ROB_occupancy_at_mispredict 253.39016

Core_0_L1D_total_access 50843815
Core_0_L1D_total_hit 50021118
Core_0_L1D_total_miss 822697
Core_0_L1D_loads 34156654
Core_0_L1D_load_hit 33498198
Core_0_L1D_load_miss 658456
Core_0_L1D_RFOs 16687161
Core_0_L1D_RFO_hit 16522920
Core_0_L1D_RFO_miss 164241
Core_0_L1D_prefetches 0
Core_0_L1D_prefetch_hit 0
Core_0_L1D_prefetch_miss 0
Core_0_L1D_writebacks 0
Core_0_L1D_writeback_hit 0
Core_0_L1D_writeback_miss 0
Core_0_L1D_prefetch_requested 0
Core_0_L1D_prefetch_issued 0
Core_0_L1D_prefetch_useful 0
Core_0_L1D_prefetch_useless 0
Core_0_L1D_prefetch_late 0
Core_0_L1D_average_miss_latency 108.78572

Core_0_L1I_total_access 26644730
Core_0_L1I_total_hit 26644730
Core_0_L1I_total_miss 0
Core_0_L1I_loads 26644730
Core_0_L1I_load_hit 26644730
Core_0_L1I_load_miss 0
Core_0_L1I_RFOs 0
Core_0_L1I_RFO_hit 0
Core_0_L1I_RFO_miss 0
Core_0_L1I_prefetches 0
Core_0_L1I_prefetch_hit 0
Core_0_L1I_prefetch_miss 0
Core_0_L1I_writebacks 0
Core_0_L1I_writeback_hit 0
Core_0_L1I_writeback_miss 0
Core_0_L1I_prefetch_requested 0
Core_0_L1I_prefetch_issued 0
Core_0_L1I_prefetch_useful 0
Core_0_L1I_prefetch_useless 0
Core_0_L1I_prefetch_late 0
Core_0_L1I_average_miss_latency -nan

Core_0_L2C_total_access 2683025
Core_0_L2C_total_hit 2139593
Core_0_L2C_total_miss 543432
Core_0_L2C_loads 658456
Core_0_L2C_load_hit 635076
Core_0_L2C_load_miss 23380
Core_0_L2C_RFOs 164241
Core_0_L2C_RFO_hit 79
Core_0_L2C_RFO_miss 164162
Core_0_L2C_prefetches 1689191
Core_0_L2C_prefetch_hit 1333491
Core_0_L2C_prefetch_miss 355700
Core_0_L2C_writebacks 171137
Core_0_L2C_writeback_hit 170947
Core_0_L2C_writeback_miss 190
Core_0_L2C_prefetch_requested 3511529
Core_0_L2C_prefetch_issued 3196118
Core_0_L2C_prefetch_useful 669817
Core_0_L2C_prefetch_useless 886
Core_0_L2C_prefetch_late 20
Core_0_L2C_average_miss_latency 166.38163

Core_0_LLC_total_access 1034686
Core_0_LLC_total_hit 334152
Core_0_LLC_total_miss 700534
Core_0_LLC_loads 23360
Core_0_LLC_load_hit 16976
Core_0_LLC_load_miss 6384
Core_0_LLC_RFOs 164162
Core_0_LLC_RFO_hit 3476
Core_0_LLC_RFO_miss 160686
Core_0_LLC_prefetches 683124
Core_0_LLC_prefetch_hit 310253
Core_0_LLC_prefetch_miss 372871
Core_0_LLC_writebacks 164040
Core_0_LLC_writeback_hit 3447
Core_0_LLC_writeback_miss 160593
Core_0_LLC_prefetch_requested 717893
Core_0_LLC_prefetch_issued 706631
Core_0_LLC_prefetch_useful 62713
Core_0_LLC_prefetch_useless 639680
Core_0_LLC_prefetch_late 15
Core_0_LLC_average_miss_latency 184.51778

Core_0_major_page_fault 0
Core_0_minor_page_fault 8761

CPU 0 L2C PC-based stride prefetcher final stats
LLC Next Line Prefetcher Final Stats: none
Channel_0_RQ_row_buffer_hit 141754
Channel_0_RQ_row_buffer_miss 398187
Channel_0_WQ_row_buffer_hit 20936
Channel_0_WQ_row_buffer_miss 137744
Channel_0_WQ_full 0
Channel_0_dbus_congested 190420

avg_congested_cycle 10
