*************************************************
   ChampSim Multicore Out-of-Order Simulator
   Last compiled: Dec 22 2023 20:12:08
*************************************************

trace_0 ./test_trace/436.cactusADM-1804B.champsimtrace.xz
CPU 0 L1D next line prefetcher
CPU 0 L2C IP-based stride prefetcher
Initialize SHIP state
warmup_instructions 100000000
simulation_instructions 100000000
champsim_seed 271

num_cpus 1
cpu_freq 4000
dram_io_freq 2400
page_size 4096
block_size 64
max_read_per_cycle 8
max_fill_per_cycle 1
dram_channels 1
dram_ranks 1
dram_banks 8
dram_rows 65536
dram_columns 128
dram_row_size 8
dram_size 4096
dram_pages 1048576

fetch_width 6
decode_width 6
exec_width 4
lq_width 2
sq_width 2
retire_width 4
scheduler_size 128
branch_mispredict_penalty 20
rob_size 256
lq_size 72
sq_size 56
num_instr_destinations_sparc 4
num_instr_destinations 2
num_instr_sources 4

itlb_set 16
itlb_way 8
itlb_rq_size 16
itlb_wq_size 16
itlb_pq_size 0
itlb_mshr_size 8
itlb_latency 1

dtlb_set 16
dtlb_way 4
dtlb_rq_size 16
dtlb_wq_size 16
dtlb_pq_size 0
dtlb_mshr_size 8
dtlb_latency 1

stlb_set 128
stlb_way 12
stlb_rq_size 32
stlb_wq_size 32
stlb_pq_size 0
stlb_mshr_size 16
stlb_latency 8

l1i_size 32
l1i_set 64
l1i_way 8
l1i_rq_size 64
l1i_wq_size 64
l1i_pq_size 8
l1i_mshr_size 8
l1i_latency 1

l1d_size 32
l1d_set 64
l1d_way 8
l1d_rq_size 64
l1d_wq_size 64
l1d_pq_size 8
l1d_mshr_size 16
l1d_latency 4

l2c_size 512
l2c_set 1024
l2c_way 8
l2c_rq_size 32
l2c_wq_size 32
l2c_pq_size 16
l2c_mshr_size 32
l2c_latency 10

llc_size 2048
llc_set 2048
llc_way 16
llc_rq_size 32
llc_wq_size 32
llc_pq_size 32
llc_mshr_size 64
llc_latency 20

dram_channel_width 8
dram_wq_size 64
dram_rq_size 64
tRP 15
tRCD 15
tCAS 12.5
dram_dbus_turn_around_time 30
dram_write_high_wm 56
dram_write_low_wm 48
min_dram_writes_per_switch 16
dram_mtps 2400
dram_dbus_return_time 13


Heartbeat CPU  0 instructions:    1000000 cycles:     702167 heartbeat IPC: 1.42416 cumulative IPC: 1.42416 (Simulation time: 0 hr 0 min 2 sec) 
Heartbeat CPU  0 instructions:    2000000 cycles:    1404092 heartbeat IPC: 1.42465 cumulative IPC: 1.42441 (Simulation time: 0 hr 0 min 4 sec) 
Heartbeat CPU  0 instructions:    3000000 cycles:    2106232 heartbeat IPC: 1.42422 cumulative IPC: 1.42434 (Simulation time: 0 hr 0 min 6 sec) 
Heartbeat CPU  0 instructions:    4000000 cycles:    2808359 heartbeat IPC: 1.42424 cumulative IPC: 1.42432 (Simulation time: 0 hr 0 min 8 sec) 
Heartbeat CPU  0 instructions:    5000000 cycles:    3510266 heartbeat IPC: 1.42469 cumulative IPC: 1.42439 (Simulation time: 0 hr 0 min 9 sec) 
Heartbeat CPU  0 instructions:    6000000 cycles:    4212372 heartbeat IPC: 1.42429 cumulative IPC: 1.42438 (Simulation time: 0 hr 0 min 11 sec) 
Heartbeat CPU  0 instructions:    7000001 cycles:    4914628 heartbeat IPC: 1.42398 cumulative IPC: 1.42432 (Simulation time: 0 hr 0 min 13 sec) 
Heartbeat CPU  0 instructions:    8000000 cycles:    5616445 heartbeat IPC: 1.42487 cumulative IPC: 1.42439 (Simulation time: 0 hr 0 min 15 sec) 
Heartbeat CPU  0 instructions:    9000001 cycles:    6318672 heartbeat IPC: 1.42404 cumulative IPC: 1.42435 (Simulation time: 0 hr 0 min 17 sec) 
Heartbeat CPU  0 instructions:   10000000 cycles:    7020712 heartbeat IPC: 1.42442 cumulative IPC: 1.42436 (Simulation time: 0 hr 0 min 19 sec) 
Heartbeat CPU  0 instructions:   11000002 cycles:    7722676 heartbeat IPC: 1.42458 cumulative IPC: 1.42438 (Simulation time: 0 hr 0 min 21 sec) 
Heartbeat CPU  0 instructions:   12000000 cycles:    8424610 heartbeat IPC: 1.42463 cumulative IPC: 1.42440 (Simulation time: 0 hr 0 min 23 sec) 
Heartbeat CPU  0 instructions:   13000000 cycles:    9126948 heartbeat IPC: 1.42382 cumulative IPC: 1.42435 (Simulation time: 0 hr 0 min 25 sec) 
Heartbeat CPU  0 instructions:   14000002 cycles:    9829009 heartbeat IPC: 1.42438 cumulative IPC: 1.42436 (Simulation time: 0 hr 0 min 26 sec) 
Heartbeat CPU  0 instructions:   15000002 cycles:   10530699 heartbeat IPC: 1.42513 cumulative IPC: 1.42441 (Simulation time: 0 hr 0 min 28 sec) 
Heartbeat CPU  0 instructions:   16000000 cycles:   11233099 heartbeat IPC: 1.42369 cumulative IPC: 1.42436 (Simulation time: 0 hr 0 min 30 sec) 
Heartbeat CPU  0 instructions:   17000000 cycles:   11935414 heartbeat IPC: 1.42386 cumulative IPC: 1.42433 (Simulation time: 0 hr 0 min 32 sec) 
Heartbeat CPU  0 instructions:   18000001 cycles:   12594460 heartbeat IPC: 1.51735 cumulative IPC: 1.42920 (Simulation time: 0 hr 0 min 34 sec) 
Heartbeat CPU  0 instructions:   19000000 cycles:   13226724 heartbeat IPC: 1.58162 cumulative IPC: 1.43649 (Simulation time: 0 hr 0 min 36 sec) 
Heartbeat CPU  0 instructions:   20000000 cycles:   13928992 heartbeat IPC: 1.42396 cumulative IPC: 1.43585 (Simulation time: 0 hr 0 min 38 sec) 
Heartbeat CPU  0 instructions:   21000000 cycles:   14631155 heartbeat IPC: 1.42417 cumulative IPC: 1.43529 (Simulation time: 0 hr 0 min 39 sec) 
Heartbeat CPU  0 instructions:   22000002 cycles:   15333183 heartbeat IPC: 1.42445 cumulative IPC: 1.43480 (Simulation time: 0 hr 0 min 41 sec) 
Heartbeat CPU  0 instructions:   23000001 cycles:   16035313 heartbeat IPC: 1.42424 cumulative IPC: 1.43433 (Simulation time: 0 hr 0 min 43 sec) 
Heartbeat CPU  0 instructions:   24000000 cycles:   16737173 heartbeat IPC: 1.42478 cumulative IPC: 1.43393 (Simulation time: 0 hr 0 min 45 sec) 
Heartbeat CPU  0 instructions:   25000001 cycles:   17439280 heartbeat IPC: 1.42429 cumulative IPC: 1.43355 (Simulation time: 0 hr 0 min 47 sec) 
Heartbeat CPU  0 instructions:   26000003 cycles:   18141606 heartbeat IPC: 1.42384 cumulative IPC: 1.43317 (Simulation time: 0 hr 0 min 49 sec) 
Heartbeat CPU  0 instructions:   27000003 cycles:   18843568 heartbeat IPC: 1.42458 cumulative IPC: 1.43285 (Simulation time: 0 hr 0 min 51 sec) 
Heartbeat CPU  0 instructions:   28000000 cycles:   19545513 heartbeat IPC: 1.42461 cumulative IPC: 1.43255 (Simulation time: 0 hr 0 min 53 sec) 
Heartbeat CPU  0 instructions:   29000000 cycles:   20247699 heartbeat IPC: 1.42412 cumulative IPC: 1.43226 (Simulation time: 0 hr 0 min 55 sec) 
Heartbeat CPU  0 instructions:   30000003 cycles:   20949836 heartbeat IPC: 1.42423 cumulative IPC: 1.43199 (Simulation time: 0 hr 0 min 57 sec) 
Heartbeat CPU  0 instructions:   31000003 cycles:   21651527 heartbeat IPC: 1.42513 cumulative IPC: 1.43177 (Simulation time: 0 hr 0 min 58 sec) 
Heartbeat CPU  0 instructions:   32000000 cycles:   22353396 heartbeat IPC: 1.42476 cumulative IPC: 1.43155 (Simulation time: 0 hr 1 min 0 sec) 
Heartbeat CPU  0 instructions:   33000001 cycles:   23055870 heartbeat IPC: 1.42354 cumulative IPC: 1.43131 (Simulation time: 0 hr 1 min 2 sec) 
Heartbeat CPU  0 instructions:   34000000 cycles:   23757846 heartbeat IPC: 1.42455 cumulative IPC: 1.43111 (Simulation time: 0 hr 1 min 4 sec) 
Heartbeat CPU  0 instructions:   35000001 cycles:   24459738 heartbeat IPC: 1.42472 cumulative IPC: 1.43092 (Simulation time: 0 hr 1 min 6 sec) 
Heartbeat CPU  0 instructions:   36000000 cycles:   25161711 heartbeat IPC: 1.42455 cumulative IPC: 1.43075 (Simulation time: 0 hr 1 min 8 sec) 
Heartbeat CPU  0 instructions:   37000000 cycles:   25864063 heartbeat IPC: 1.42379 cumulative IPC: 1.43056 (Simulation time: 0 hr 1 min 10 sec) 
Heartbeat CPU  0 instructions:   38000001 cycles:   26566038 heartbeat IPC: 1.42455 cumulative IPC: 1.43040 (Simulation time: 0 hr 1 min 12 sec) 
Heartbeat CPU  0 instructions:   39000000 cycles:   27267959 heartbeat IPC: 1.42466 cumulative IPC: 1.43025 (Simulation time: 0 hr 1 min 13 sec) 
Heartbeat CPU  0 instructions:   40000000 cycles:   27969941 heartbeat IPC: 1.42454 cumulative IPC: 1.43011 (Simulation time: 0 hr 1 min 15 sec) 
Heartbeat CPU  0 instructions:   41000000 cycles:   28570981 heartbeat IPC: 1.66378 cumulative IPC: 1.43502 (Simulation time: 0 hr 1 min 17 sec) 
Heartbeat CPU  0 instructions:   42000002 cycles:   29261641 heartbeat IPC: 1.44789 cumulative IPC: 1.43533 (Simulation time: 0 hr 1 min 19 sec) 
Heartbeat CPU  0 instructions:   43000002 cycles:   29963800 heartbeat IPC: 1.42418 cumulative IPC: 1.43507 (Simulation time: 0 hr 1 min 21 sec) 
Heartbeat CPU  0 instructions:   44000000 cycles:   30665917 heartbeat IPC: 1.42426 cumulative IPC: 1.43482 (Simulation time: 0 hr 1 min 23 sec) 
Heartbeat CPU  0 instructions:   45000003 cycles:   31367912 heartbeat IPC: 1.42452 cumulative IPC: 1.43459 (Simulation time: 0 hr 1 min 25 sec) 
Heartbeat CPU  0 instructions:   46000003 cycles:   32069843 heartbeat IPC: 1.42464 cumulative IPC: 1.43437 (Simulation time: 0 hr 1 min 27 sec) 
Heartbeat CPU  0 instructions:   47000000 cycles:   32771807 heartbeat IPC: 1.42457 cumulative IPC: 1.43416 (Simulation time: 0 hr 1 min 29 sec) 
Heartbeat CPU  0 instructions:   48000000 cycles:   33474144 heartbeat IPC: 1.42382 cumulative IPC: 1.43394 (Simulation time: 0 hr 1 min 30 sec) 
Heartbeat CPU  0 instructions:   49000000 cycles:   34175885 heartbeat IPC: 1.42503 cumulative IPC: 1.43376 (Simulation time: 0 hr 1 min 32 sec) 
Heartbeat CPU  0 instructions:   50000000 cycles:   34877969 heartbeat IPC: 1.42433 cumulative IPC: 1.43357 (Simulation time: 0 hr 1 min 34 sec) 
Heartbeat CPU  0 instructions:   51000000 cycles:   35580244 heartbeat IPC: 1.42394 cumulative IPC: 1.43338 (Simulation time: 0 hr 1 min 36 sec) 
Heartbeat CPU  0 instructions:   52000000 cycles:   36282136 heartbeat IPC: 1.42472 cumulative IPC: 1.43321 (Simulation time: 0 hr 1 min 38 sec) 
Heartbeat CPU  0 instructions:   53000000 cycles:   36984262 heartbeat IPC: 1.42425 cumulative IPC: 1.43304 (Simulation time: 0 hr 1 min 40 sec) 
Heartbeat CPU  0 instructions:   54000001 cycles:   37686098 heartbeat IPC: 1.42484 cumulative IPC: 1.43289 (Simulation time: 0 hr 1 min 42 sec) 
Heartbeat CPU  0 instructions:   55000001 cycles:   38388122 heartbeat IPC: 1.42445 cumulative IPC: 1.43273 (Simulation time: 0 hr 1 min 44 sec) 
Heartbeat CPU  0 instructions:   56000000 cycles:   39090329 heartbeat IPC: 1.42408 cumulative IPC: 1.43258 (Simulation time: 0 hr 1 min 46 sec) 
Heartbeat CPU  0 instructions:   57000000 cycles:   39792554 heartbeat IPC: 1.42404 cumulative IPC: 1.43243 (Simulation time: 0 hr 1 min 47 sec) 
Heartbeat CPU  0 instructions:   58000003 cycles:   40494566 heartbeat IPC: 1.42448 cumulative IPC: 1.43229 (Simulation time: 0 hr 1 min 49 sec) 
Heartbeat CPU  0 instructions:   59000000 cycles:   41196454 heartbeat IPC: 1.42472 cumulative IPC: 1.43216 (Simulation time: 0 hr 1 min 51 sec) 
Heartbeat CPU  0 instructions:   60000000 cycles:   41898657 heartbeat IPC: 1.42409 cumulative IPC: 1.43203 (Simulation time: 0 hr 1 min 53 sec) 
Heartbeat CPU  0 instructions:   61000000 cycles:   42600603 heartbeat IPC: 1.42461 cumulative IPC: 1.43190 (Simulation time: 0 hr 1 min 55 sec) 
Heartbeat CPU  0 instructions:   62000002 cycles:   43302531 heartbeat IPC: 1.42465 cumulative IPC: 1.43179 (Simulation time: 0 hr 1 min 57 sec) 
Heartbeat CPU  0 instructions:   63000000 cycles:   43947331 heartbeat IPC: 1.55087 cumulative IPC: 1.43353 (Simulation time: 0 hr 1 min 59 sec) 
Heartbeat CPU  0 instructions:   64000000 cycles:   44596064 heartbeat IPC: 1.54147 cumulative IPC: 1.43510 (Simulation time: 0 hr 2 min 1 sec) 
Heartbeat CPU  0 instructions:   65000000 cycles:   45297946 heartbeat IPC: 1.42474 cumulative IPC: 1.43494 (Simulation time: 0 hr 2 min 3 sec) 
Heartbeat CPU  0 instructions:   66000001 cycles:   45999733 heartbeat IPC: 1.42494 cumulative IPC: 1.43479 (Simulation time: 0 hr 2 min 4 sec) 
Heartbeat CPU  0 instructions:   67000002 cycles:   46701597 heartbeat IPC: 1.42478 cumulative IPC: 1.43464 (Simulation time: 0 hr 2 min 6 sec) 
Heartbeat CPU  0 instructions:   68000000 cycles:   47403749 heartbeat IPC: 1.42419 cumulative IPC: 1.43449 (Simulation time: 0 hr 2 min 8 sec) 
Heartbeat CPU  0 instructions:   69000000 cycles:   48105754 heartbeat IPC: 1.42449 cumulative IPC: 1.43434 (Simulation time: 0 hr 2 min 10 sec) 
Heartbeat CPU  0 instructions:   70000002 cycles:   48807648 heartbeat IPC: 1.42472 cumulative IPC: 1.43420 (Simulation time: 0 hr 2 min 12 sec) 
Heartbeat CPU  0 instructions:   71000003 cycles:   49510020 heartbeat IPC: 1.42375 cumulative IPC: 1.43405 (Simulation time: 0 hr 2 min 14 sec) 
Heartbeat CPU  0 instructions:   72000000 cycles:   50211865 heartbeat IPC: 1.42481 cumulative IPC: 1.43392 (Simulation time: 0 hr 2 min 16 sec) 
Heartbeat CPU  0 instructions:   73000001 cycles:   50913747 heartbeat IPC: 1.42474 cumulative IPC: 1.43380 (Simulation time: 0 hr 2 min 18 sec) 
Heartbeat CPU  0 instructions:   74000003 cycles:   51615832 heartbeat IPC: 1.42433 cumulative IPC: 1.43367 (Simulation time: 0 hr 2 min 20 sec) 
Heartbeat CPU  0 instructions:   75000002 cycles:   52318249 heartbeat IPC: 1.42365 cumulative IPC: 1.43353 (Simulation time: 0 hr 2 min 21 sec) 
Heartbeat CPU  0 instructions:   76000000 cycles:   53020181 heartbeat IPC: 1.42464 cumulative IPC: 1.43342 (Simulation time: 0 hr 2 min 23 sec) 
Heartbeat CPU  0 instructions:   77000003 cycles:   53722567 heartbeat IPC: 1.42372 cumulative IPC: 1.43329 (Simulation time: 0 hr 2 min 25 sec) 
Heartbeat CPU  0 instructions:   78000001 cycles:   54424881 heartbeat IPC: 1.42386 cumulative IPC: 1.43317 (Simulation time: 0 hr 2 min 27 sec) 
Heartbeat CPU  0 instructions:   79000001 cycles:   55126556 heartbeat IPC: 1.42516 cumulative IPC: 1.43307 (Simulation time: 0 hr 2 min 29 sec) 
Heartbeat CPU  0 instructions:   80000000 cycles:   55828365 heartbeat IPC: 1.42489 cumulative IPC: 1.43296 (Simulation time: 0 hr 2 min 31 sec) 
Heartbeat CPU  0 instructions:   81000002 cycles:   56530484 heartbeat IPC: 1.42426 cumulative IPC: 1.43286 (Simulation time: 0 hr 2 min 33 sec) 
Heartbeat CPU  0 instructions:   82000003 cycles:   57232480 heartbeat IPC: 1.42451 cumulative IPC: 1.43275 (Simulation time: 0 hr 2 min 35 sec) 
Heartbeat CPU  0 instructions:   83000001 cycles:   57934538 heartbeat IPC: 1.42438 cumulative IPC: 1.43265 (Simulation time: 0 hr 2 min 37 sec) 
Heartbeat CPU  0 instructions:   84000000 cycles:   58636516 heartbeat IPC: 1.42454 cumulative IPC: 1.43255 (Simulation time: 0 hr 2 min 39 sec) 
Heartbeat CPU  0 instructions:   85000000 cycles:   59324378 heartbeat IPC: 1.45378 cumulative IPC: 1.43280 (Simulation time: 0 hr 2 min 40 sec) 
Heartbeat CPU  0 instructions:   86000002 cycles:   59929306 heartbeat IPC: 1.65309 cumulative IPC: 1.43502 (Simulation time: 0 hr 2 min 42 sec) 
Heartbeat CPU  0 instructions:   87000002 cycles:   60631551 heartbeat IPC: 1.42400 cumulative IPC: 1.43490 (Simulation time: 0 hr 2 min 44 sec) 
Heartbeat CPU  0 instructions:   88000000 cycles:   61333868 heartbeat IPC: 1.42386 cumulative IPC: 1.43477 (Simulation time: 0 hr 2 min 46 sec) 
Heartbeat CPU  0 instructions:   89000001 cycles:   62035666 heartbeat IPC: 1.42491 cumulative IPC: 1.43466 (Simulation time: 0 hr 2 min 48 sec) 
Heartbeat CPU  0 instructions:   90000003 cycles:   62737765 heartbeat IPC: 1.42430 cumulative IPC: 1.43454 (Simulation time: 0 hr 2 min 50 sec) 
Heartbeat CPU  0 instructions:   91000003 cycles:   63439908 heartbeat IPC: 1.42421 cumulative IPC: 1.43443 (Simulation time: 0 hr 2 min 52 sec) 
Heartbeat CPU  0 instructions:   92000000 cycles:   64141854 heartbeat IPC: 1.42461 cumulative IPC: 1.43432 (Simulation time: 0 hr 2 min 54 sec) 
Heartbeat CPU  0 instructions:   93000002 cycles:   64843891 heartbeat IPC: 1.42443 cumulative IPC: 1.43421 (Simulation time: 0 hr 2 min 56 sec) 
Heartbeat CPU  0 instructions:   94000002 cycles:   65545686 heartbeat IPC: 1.42492 cumulative IPC: 1.43411 (Simulation time: 0 hr 2 min 57 sec) 
Heartbeat CPU  0 instructions:   95000003 cycles:   66247609 heartbeat IPC: 1.42466 cumulative IPC: 1.43401 (Simulation time: 0 hr 2 min 59 sec) 
Heartbeat CPU  0 instructions:   96000000 cycles:   66949685 heartbeat IPC: 1.42434 cumulative IPC: 1.43391 (Simulation time: 0 hr 3 min 1 sec) 
Heartbeat CPU  0 instructions:   97000000 cycles:   67651768 heartbeat IPC: 1.42433 cumulative IPC: 1.43381 (Simulation time: 0 hr 3 min 3 sec) 
Heartbeat CPU  0 instructions:   98000002 cycles:   68353676 heartbeat IPC: 1.42469 cumulative IPC: 1.43372 (Simulation time: 0 hr 3 min 5 sec) 
Heartbeat CPU  0 instructions:   99000003 cycles:   69055641 heartbeat IPC: 1.42457 cumulative IPC: 1.43363 (Simulation time: 0 hr 3 min 7 sec) 
Heartbeat CPU  0 instructions:  100000000 cycles:   69757798 heartbeat IPC: 1.42418 cumulative IPC: 1.43353 (Simulation time: 0 hr 3 min 9 sec) 

Warmup complete CPU  0 instructions:  100000001 cycles:   69757818 (Simulation time: 0 hr 3 min 9 sec) 

Heartbeat CPU  0 instructions:  101000000 cycles:   71659806 heartbeat IPC: 0.52576 cumulative IPC: 0.52577 (Simulation time: 0 hr 3 min 11 sec) 
Heartbeat CPU  0 instructions:  102000003 cycles:   73393164 heartbeat IPC: 0.57692 cumulative IPC: 0.55015 (Simulation time: 0 hr 3 min 13 sec) 
Heartbeat CPU  0 instructions:  103000003 cycles:   75237603 heartbeat IPC: 0.54217 cumulative IPC: 0.54747 (Simulation time: 0 hr 3 min 15 sec) 
Heartbeat CPU  0 instructions:  104000000 cycles:   77128871 heartbeat IPC: 0.52874 cumulative IPC: 0.54266 (Simulation time: 0 hr 3 min 17 sec) 
Heartbeat CPU  0 instructions:  105000002 cycles:   78942577 heartbeat IPC: 0.55136 cumulative IPC: 0.54438 (Simulation time: 0 hr 3 min 20 sec) 
Heartbeat CPU  0 instructions:  106000000 cycles:   80715276 heartbeat IPC: 0.56411 cumulative IPC: 0.54757 (Simulation time: 0 hr 3 min 22 sec) 
Heartbeat CPU  0 instructions:  107000003 cycles:   82603335 heartbeat IPC: 0.52965 cumulative IPC: 0.54494 (Simulation time: 0 hr 3 min 24 sec) 
Heartbeat CPU  0 instructions:  108000000 cycles:   93362798 heartbeat IPC: 0.09294 cumulative IPC: 0.33891 (Simulation time: 0 hr 3 min 26 sec) 
Heartbeat CPU  0 instructions:  109000003 cycles:  100099425 heartbeat IPC: 0.14844 cumulative IPC: 0.29662 (Simulation time: 0 hr 3 min 29 sec) 
Heartbeat CPU  0 instructions:  110000001 cycles:  101986947 heartbeat IPC: 0.52979 cumulative IPC: 0.31028 (Simulation time: 0 hr 3 min 31 sec) 
Heartbeat CPU  0 instructions:  111000000 cycles:  103882653 heartbeat IPC: 0.52751 cumulative IPC: 0.32235 (Simulation time: 0 hr 3 min 33 sec) 
Heartbeat CPU  0 instructions:  112000000 cycles:  105627985 heartbeat IPC: 0.57296 cumulative IPC: 0.33454 (Simulation time: 0 hr 3 min 35 sec) 
Heartbeat CPU  0 instructions:  113000000 cycles:  107474799 heartbeat IPC: 0.54147 cumulative IPC: 0.34467 (Simulation time: 0 hr 3 min 37 sec) 
Heartbeat CPU  0 instructions:  114000000 cycles:  109379988 heartbeat IPC: 0.52488 cumulative IPC: 0.35334 (Simulation time: 0 hr 3 min 40 sec) 
Heartbeat CPU  0 instructions:  115000001 cycles:  111192319 heartbeat IPC: 0.55178 cumulative IPC: 0.36202 (Simulation time: 0 hr 3 min 42 sec) 
Heartbeat CPU  0 instructions:  116000000 cycles:  112965478 heartbeat IPC: 0.56396 cumulative IPC: 0.37030 (Simulation time: 0 hr 3 min 44 sec) 
Heartbeat CPU  0 instructions:  117000003 cycles:  114860446 heartbeat IPC: 0.52771 cumulative IPC: 0.37692 (Simulation time: 0 hr 3 min 46 sec) 
Heartbeat CPU  0 instructions:  118000002 cycles:  116741992 heartbeat IPC: 0.53148 cumulative IPC: 0.38311 (Simulation time: 0 hr 3 min 48 sec) 
Heartbeat CPU  0 instructions:  119000002 cycles:  118465431 heartbeat IPC: 0.58024 cumulative IPC: 0.39008 (Simulation time: 0 hr 3 min 50 sec) 
Heartbeat CPU  0 instructions:  120000000 cycles:  120347516 heartbeat IPC: 0.53132 cumulative IPC: 0.39534 (Simulation time: 0 hr 3 min 52 sec) 
Heartbeat CPU  0 instructions:  121000003 cycles:  122240967 heartbeat IPC: 0.52814 cumulative IPC: 0.40013 (Simulation time: 0 hr 3 min 55 sec) 
Heartbeat CPU  0 instructions:  122000003 cycles:  123998637 heartbeat IPC: 0.56894 cumulative IPC: 0.40560 (Simulation time: 0 hr 3 min 57 sec) 
Heartbeat CPU  0 instructions:  123000002 cycles:  125828474 heartbeat IPC: 0.54650 cumulative IPC: 0.41020 (Simulation time: 0 hr 3 min 59 sec) 
Heartbeat CPU  0 instructions:  124000000 cycles:  127725032 heartbeat IPC: 0.52727 cumulative IPC: 0.41403 (Simulation time: 0 hr 4 min 1 sec) 
Heartbeat CPU  0 instructions:  125000000 cycles:  129560492 heartbeat IPC: 0.54482 cumulative IPC: 0.41804 (Simulation time: 0 hr 4 min 3 sec) 
Heartbeat CPU  0 instructions:  126000002 cycles:  131329643 heartbeat IPC: 0.56524 cumulative IPC: 0.42227 (Simulation time: 0 hr 4 min 5 sec) 
Heartbeat CPU  0 instructions:  127000002 cycles:  133343956 heartbeat IPC: 0.49645 cumulative IPC: 0.42462 (Simulation time: 0 hr 4 min 7 sec) 
Heartbeat CPU  0 instructions:  128000000 cycles:  135227653 heartbeat IPC: 0.53087 cumulative IPC: 0.42768 (Simulation time: 0 hr 4 min 9 sec) 
Heartbeat CPU  0 instructions:  129000001 cycles:  136946917 heartbeat IPC: 0.58164 cumulative IPC: 0.43162 (Simulation time: 0 hr 4 min 12 sec) 
Heartbeat CPU  0 instructions:  130000000 cycles:  142448019 heartbeat IPC: 0.18178 cumulative IPC: 0.41271 (Simulation time: 0 hr 4 min 14 sec) 
Heartbeat CPU  0 instructions:  131000003 cycles:  154571238 heartbeat IPC: 0.08249 cumulative IPC: 0.36551 (Simulation time: 0 hr 4 min 16 sec) 
Heartbeat CPU  0 instructions:  132000000 cycles:  156333572 heartbeat IPC: 0.56743 cumulative IPC: 0.36962 (Simulation time: 0 hr 4 min 18 sec) 
Heartbeat CPU  0 instructions:  133000000 cycles:  158167289 heartbeat IPC: 0.54534 cumulative IPC: 0.37326 (Simulation time: 0 hr 4 min 20 sec) 
Heartbeat CPU  0 instructions:  134000000 cycles:  160064577 heartbeat IPC: 0.52707 cumulative IPC: 0.37649 (Simulation time: 0 hr 4 min 23 sec) 
Heartbeat CPU  0 instructions:  135000000 cycles:  161898512 heartbeat IPC: 0.54528 cumulative IPC: 0.37985 (Simulation time: 0 hr 4 min 25 sec) 
Heartbeat CPU  0 instructions:  136000000 cycles:  163656337 heartbeat IPC: 0.56888 cumulative IPC: 0.38339 (Simulation time: 0 hr 4 min 27 sec) 
Heartbeat CPU  0 instructions:  137000002 cycles:  165553231 heartbeat IPC: 0.52718 cumulative IPC: 0.38624 (Simulation time: 0 hr 4 min 29 sec) 
Heartbeat CPU  0 instructions:  138000001 cycles:  167440574 heartbeat IPC: 0.52984 cumulative IPC: 0.38901 (Simulation time: 0 hr 4 min 31 sec) 
Heartbeat CPU  0 instructions:  139000001 cycles:  169160291 heartbeat IPC: 0.58149 cumulative IPC: 0.39234 (Simulation time: 0 hr 4 min 33 sec) 
Heartbeat CPU  0 instructions:  140000000 cycles:  171046174 heartbeat IPC: 0.53026 cumulative IPC: 0.39491 (Simulation time: 0 hr 4 min 35 sec) 
Heartbeat CPU  0 instructions:  141000000 cycles:  172943080 heartbeat IPC: 0.52717 cumulative IPC: 0.39734 (Simulation time: 0 hr 4 min 37 sec) 
Heartbeat CPU  0 instructions:  142000001 cycles:  174716227 heartbeat IPC: 0.56397 cumulative IPC: 0.40016 (Simulation time: 0 hr 4 min 39 sec) 
Heartbeat CPU  0 instructions:  143000001 cycles:  176530465 heartbeat IPC: 0.55120 cumulative IPC: 0.40272 (Simulation time: 0 hr 4 min 41 sec) 
Heartbeat CPU  0 instructions:  144000000 cycles:  178427869 heartbeat IPC: 0.52704 cumulative IPC: 0.40490 (Simulation time: 0 hr 4 min 43 sec) 
Heartbeat CPU  0 instructions:  145000000 cycles:  180280636 heartbeat IPC: 0.53973 cumulative IPC: 0.40716 (Simulation time: 0 hr 4 min 46 sec) 
Heartbeat CPU  0 instructions:  146000002 cycles:  182022794 heartbeat IPC: 0.57400 cumulative IPC: 0.40974 (Simulation time: 0 hr 4 min 48 sec) 
Heartbeat CPU  0 instructions:  147000003 cycles:  183915381 heartbeat IPC: 0.52838 cumulative IPC: 0.41171 (Simulation time: 0 hr 4 min 50 sec) 
Heartbeat CPU  0 instructions:  148000000 cycles:  185802534 heartbeat IPC: 0.52990 cumulative IPC: 0.41363 (Simulation time: 0 hr 4 min 52 sec) 
Heartbeat CPU  0 instructions:  149000002 cycles:  187529421 heartbeat IPC: 0.57908 cumulative IPC: 0.41606 (Simulation time: 0 hr 4 min 54 sec) 
Heartbeat CPU  0 instructions:  150000003 cycles:  189399959 heartbeat IPC: 0.53461 cumulative IPC: 0.41791 (Simulation time: 0 hr 4 min 56 sec) 
Heartbeat CPU  0 instructions:  151000003 cycles:  191290665 heartbeat IPC: 0.52890 cumulative IPC: 0.41964 (Simulation time: 0 hr 4 min 58 sec) 
Heartbeat CPU  0 instructions:  152000000 cycles:  193094809 heartbeat IPC: 0.55428 cumulative IPC: 0.42161 (Simulation time: 0 hr 5 min 0 sec) 
Heartbeat CPU  0 instructions:  153000003 cycles:  205921178 heartbeat IPC: 0.07796 cumulative IPC: 0.38924 (Simulation time: 0 hr 5 min 3 sec) 
Heartbeat CPU  0 instructions:  154000000 cycles:  210842710 heartbeat IPC: 0.20319 cumulative IPC: 0.38275 (Simulation time: 0 hr 5 min 5 sec) 
Heartbeat CPU  0 instructions:  155000000 cycles:  212695340 heartbeat IPC: 0.53977 cumulative IPC: 0.38478 (Simulation time: 0 hr 5 min 7 sec) 
Heartbeat CPU  0 instructions:  156000000 cycles:  214436688 heartbeat IPC: 0.57427 cumulative IPC: 0.38706 (Simulation time: 0 hr 5 min 9 sec) 
Heartbeat CPU  0 instructions:  157000001 cycles:  216331039 heartbeat IPC: 0.52789 cumulative IPC: 0.38888 (Simulation time: 0 hr 5 min 11 sec) 
Heartbeat CPU  0 instructions:  158000001 cycles:  218220783 heartbeat IPC: 0.52917 cumulative IPC: 0.39067 (Simulation time: 0 hr 5 min 13 sec) 
Heartbeat CPU  0 instructions:  159000000 cycles:  219947126 heartbeat IPC: 0.57926 cumulative IPC: 0.39284 (Simulation time: 0 hr 5 min 15 sec) 
Heartbeat CPU  0 instructions:  160000000 cycles:  221821216 heartbeat IPC: 0.53359 cumulative IPC: 0.39457 (Simulation time: 0 hr 5 min 17 sec) 
Heartbeat CPU  0 instructions:  161000003 cycles:  223718486 heartbeat IPC: 0.52707 cumulative IPC: 0.39621 (Simulation time: 0 hr 5 min 19 sec) 
Heartbeat CPU  0 instructions:  162000000 cycles:  225510680 heartbeat IPC: 0.55797 cumulative IPC: 0.39807 (Simulation time: 0 hr 5 min 21 sec) 
Heartbeat CPU  0 instructions:  163000003 cycles:  227309902 heartbeat IPC: 0.55580 cumulative IPC: 0.39987 (Simulation time: 0 hr 5 min 24 sec) 
Heartbeat CPU  0 instructions:  164000000 cycles:  229203686 heartbeat IPC: 0.52804 cumulative IPC: 0.40139 (Simulation time: 0 hr 5 min 26 sec) 
Heartbeat CPU  0 instructions:  165000000 cycles:  231080434 heartbeat IPC: 0.53284 cumulative IPC: 0.40292 (Simulation time: 0 hr 5 min 28 sec) 
Heartbeat CPU  0 instructions:  166000001 cycles:  232804419 heartbeat IPC: 0.58005 cumulative IPC: 0.40479 (Simulation time: 0 hr 5 min 30 sec) 
Heartbeat CPU  0 instructions:  167000000 cycles:  234693705 heartbeat IPC: 0.52930 cumulative IPC: 0.40622 (Simulation time: 0 hr 5 min 32 sec) 
Heartbeat CPU  0 instructions:  168000000 cycles:  236586253 heartbeat IPC: 0.52839 cumulative IPC: 0.40760 (Simulation time: 0 hr 5 min 34 sec) 
Heartbeat CPU  0 instructions:  169000001 cycles:  238320159 heartbeat IPC: 0.57673 cumulative IPC: 0.40934 (Simulation time: 0 hr 5 min 36 sec) 
Heartbeat CPU  0 instructions:  170000002 cycles:  240175687 heartbeat IPC: 0.53893 cumulative IPC: 0.41076 (Simulation time: 0 hr 5 min 38 sec) 
Heartbeat CPU  0 instructions:  171000001 cycles:  242073491 heartbeat IPC: 0.52692 cumulative IPC: 0.41203 (Simulation time: 0 hr 5 min 40 sec) 
Heartbeat CPU  0 instructions:  172000000 cycles:  243883345 heartbeat IPC: 0.55253 cumulative IPC: 0.41349 (Simulation time: 0 hr 5 min 42 sec) 
Heartbeat CPU  0 instructions:  173000000 cycles:  245664635 heartbeat IPC: 0.56139 cumulative IPC: 0.41499 (Simulation time: 0 hr 5 min 45 sec) 
Heartbeat CPU  0 instructions:  174000003 cycles:  247560104 heartbeat IPC: 0.52758 cumulative IPC: 0.41619 (Simulation time: 0 hr 5 min 47 sec) 
Heartbeat CPU  0 instructions:  175000000 cycles:  254750148 heartbeat IPC: 0.13908 cumulative IPC: 0.40542 (Simulation time: 0 hr 5 min 49 sec) 
Heartbeat CPU  0 instructions:  176000000 cycles:  265021663 heartbeat IPC: 0.09736 cumulative IPC: 0.38922 (Simulation time: 0 hr 5 min 51 sec) 
Heartbeat CPU  0 instructions:  177000001 cycles:  266984745 heartbeat IPC: 0.50940 cumulative IPC: 0.39041 (Simulation time: 0 hr 5 min 54 sec) 
Heartbeat CPU  0 instructions:  178000003 cycles:  269032024 heartbeat IPC: 0.48845 cumulative IPC: 0.39142 (Simulation time: 0 hr 5 min 56 sec) 
Heartbeat CPU  0 instructions:  179000002 cycles:  270937545 heartbeat IPC: 0.52479 cumulative IPC: 0.39268 (Simulation time: 0 hr 5 min 58 sec) 
Heartbeat CPU  0 instructions:  180000000 cycles:  272821702 heartbeat IPC: 0.53074 cumulative IPC: 0.39396 (Simulation time: 0 hr 6 min 0 sec) 
Heartbeat CPU  0 instructions:  181000003 cycles:  274733202 heartbeat IPC: 0.52315 cumulative IPC: 0.39517 (Simulation time: 0 hr 6 min 2 sec) 
Heartbeat CPU  0 instructions:  182000003 cycles:  276560376 heartbeat IPC: 0.54729 cumulative IPC: 0.39651 (Simulation time: 0 hr 6 min 4 sec) 
Heartbeat CPU  0 instructions:  183000000 cycles:  278369909 heartbeat IPC: 0.55263 cumulative IPC: 0.39787 (Simulation time: 0 hr 6 min 6 sec) 
Heartbeat CPU  0 instructions:  184000000 cycles:  280278390 heartbeat IPC: 0.52398 cumulative IPC: 0.39901 (Simulation time: 0 hr 6 min 8 sec) 
Heartbeat CPU  0 instructions:  185000002 cycles:  282177823 heartbeat IPC: 0.52647 cumulative IPC: 0.40015 (Simulation time: 0 hr 6 min 10 sec) 
Heartbeat CPU  0 instructions:  186000001 cycles:  283937644 heartbeat IPC: 0.56824 cumulative IPC: 0.40153 (Simulation time: 0 hr 6 min 13 sec) 
Heartbeat CPU  0 instructions:  187000000 cycles:  285835082 heartbeat IPC: 0.52703 cumulative IPC: 0.40263 (Simulation time: 0 hr 6 min 15 sec) 
Heartbeat CPU  0 instructions:  188000000 cycles:  287744754 heartbeat IPC: 0.52365 cumulative IPC: 0.40369 (Simulation time: 0 hr 6 min 17 sec) 
Heartbeat CPU  0 instructions:  189000000 cycles:  289513705 heartbeat IPC: 0.56531 cumulative IPC: 0.40499 (Simulation time: 0 hr 6 min 19 sec) 
Heartbeat CPU  0 instructions:  190000000 cycles:  291379469 heartbeat IPC: 0.53597 cumulative IPC: 0.40610 (Simulation time: 0 hr 6 min 21 sec) 
Heartbeat CPU  0 instructions:  191000000 cycles:  293290299 heartbeat IPC: 0.52333 cumulative IPC: 0.40710 (Simulation time: 0 hr 6 min 23 sec) 
Heartbeat CPU  0 instructions:  192000000 cycles:  295133235 heartbeat IPC: 0.54261 cumulative IPC: 0.40821 (Simulation time: 0 hr 6 min 25 sec) 
Heartbeat CPU  0 instructions:  193000001 cycles:  296928558 heartbeat IPC: 0.55700 cumulative IPC: 0.40938 (Simulation time: 0 hr 6 min 27 sec) 
Heartbeat CPU  0 instructions:  194000000 cycles:  298840301 heartbeat IPC: 0.52308 cumulative IPC: 0.41033 (Simulation time: 0 hr 6 min 29 sec) 
Heartbeat CPU  0 instructions:  195000002 cycles:  300738204 heartbeat IPC: 0.52690 cumulative IPC: 0.41129 (Simulation time: 0 hr 6 min 31 sec) 
Heartbeat CPU  0 instructions:  196000000 cycles:  302491479 heartbeat IPC: 0.57036 cumulative IPC: 0.41249 (Simulation time: 0 hr 6 min 34 sec) 
Heartbeat CPU  0 instructions:  197000000 cycles:  304498979 heartbeat IPC: 0.49813 cumulative IPC: 0.41322 (Simulation time: 0 hr 6 min 36 sec) 
Heartbeat CPU  0 instructions:  198000003 cycles:  318833775 heartbeat IPC: 0.06976 cumulative IPC: 0.39345 (Simulation time: 0 hr 6 min 38 sec) 
Heartbeat CPU  0 instructions:  199000001 cycles:  321930657 heartbeat IPC: 0.32290 cumulative IPC: 0.39259 (Simulation time: 0 hr 6 min 40 sec) 
Heartbeat CPU  0 instructions:  200000000 cycles:  323802947 heartbeat IPC: 0.53410 cumulative IPC: 0.39363 (Simulation time: 0 hr 6 min 43 sec) 
Finished CPU 0 instructions: 100000000 cycles: 254045157 cumulative IPC: 0.39363 (Simulation time: 0 hr 6 min 43 sec) 

ChampSim completed all CPUs

[ROI Statistics]
Core_0_instructions 100000000
Core_0_cycles 254045157
Core_0_IPC 0.39363

Core_0_branch_prediction_accuracy 99.16976
Core_0_branch_MPKI 0.01138
Core_0_average_ROB_occupancy_at_mispredict 253.39367

Core_0_L1D_total_access 83734118
Core_0_L1D_total_hit 82889486
Core_0_L1D_total_miss 844632
Core_0_L1D_loads 34100667
Core_0_L1D_load_hit 34070135
Core_0_L1D_load_miss 30532
Core_0_L1D_RFOs 16678889
Core_0_L1D_RFO_hit 16514363
Core_0_L1D_RFO_miss 164526
Core_0_L1D_prefetches 32954562
Core_0_L1D_prefetch_hit 32304988
Core_0_L1D_prefetch_miss 649574
Core_0_L1D_writebacks 0
Core_0_L1D_writeback_hit 0
Core_0_L1D_writeback_miss 0
Core_0_L1D_prefetch_requested 81148861
Core_0_L1D_prefetch_issued 78618613
Core_0_L1D_prefetch_useful 1250353
Core_0_L1D_prefetch_useless 37814
Core_0_L1D_prefetch_late 1637
Core_0_L1D_average_miss_latency 392922.13829

Core_0_L1I_total_access 26513287
Core_0_L1I_total_hit 26513287
Core_0_L1I_total_miss 0
Core_0_L1I_loads 26513287
Core_0_L1I_load_hit 26513287
Core_0_L1I_load_miss 0
Core_0_L1I_RFOs 0
Core_0_L1I_RFO_hit 0
Core_0_L1I_RFO_miss 0
Core_0_L1I_prefetches 0
Core_0_L1I_prefetch_hit 0
Core_0_L1I_prefetch_miss 0
Core_0_L1I_writebacks 0
Core_0_L1I_writeback_hit 0
Core_0_L1I_writeback_miss 0
Core_0_L1I_prefetch_requested 0
Core_0_L1I_prefetch_issued 0
Core_0_L1I_prefetch_useful 0
Core_0_L1I_prefetch_useless 0
Core_0_L1I_prefetch_late 0
Core_0_L1I_average_miss_latency -nan

Core_0_L2C_total_access 2633568
Core_0_L2C_total_hit 2089982
Core_0_L2C_total_miss 543586
Core_0_L2C_loads 28927
Core_0_L2C_load_hit 22559
Core_0_L2C_load_miss 6368
Core_0_L2C_RFOs 164433
Core_0_L2C_RFO_hit 351
Core_0_L2C_RFO_miss 164082
Core_0_L2C_prefetches 2269865
Core_0_L2C_prefetch_hit 1896940
Core_0_L2C_prefetch_miss 372925
Core_0_L2C_writebacks 170343
Core_0_L2C_writeback_hit 170132
Core_0_L2C_writeback_miss 211
Core_0_L2C_prefetch_requested 3365702
Core_0_L2C_prefetch_issued 3223279
Core_0_L2C_prefetch_useful 14373
Core_0_L2C_prefetch_useless 705222
Core_0_L2C_prefetch_late 0
Core_0_L2C_average_miss_latency 282.72173

Core_0_LLC_total_access 717806
Core_0_LLC_total_hit 119668
Core_0_LLC_total_miss 598138
Core_0_LLC_loads 6368
Core_0_LLC_load_hit 1249
Core_0_LLC_load_miss 5119
Core_0_LLC_RFOs 164082
Core_0_LLC_RFO_hit 19873
Core_0_LLC_RFO_miss 144209
Core_0_LLC_prefetches 383419
Core_0_LLC_prefetch_hit 78338
Core_0_LLC_prefetch_miss 305081
Core_0_LLC_writebacks 163937
Core_0_LLC_writeback_hit 20208
Core_0_LLC_writeback_miss 143729
Core_0_LLC_prefetch_requested 0
Core_0_LLC_prefetch_issued 0
Core_0_LLC_prefetch_useful 2864
Core_0_LLC_prefetch_useless 591041
Core_0_LLC_prefetch_late 0
Core_0_LLC_average_miss_latency 197.90741

Core_0_major_page_fault 0
Core_0_minor_page_fault 8761

CPU 0 L1D next line prefetcher final stats
CPU 0 L2C PC-based stride prefetcher final stats
Channel_0_RQ_row_buffer_hit 118297
Channel_0_RQ_row_buffer_miss 336112
Channel_0_WQ_row_buffer_hit 14683
Channel_0_WQ_row_buffer_miss 136785
Channel_0_WQ_full 90
Channel_0_dbus_congested 199344

avg_congested_cycle 10
