*************************************************
   ChampSim Multicore Out-of-Order Simulator
   Last compiled: Dec 22 2023 20:53:30
*************************************************

trace_0 ./test_trace/436.cactusADM-1804B.champsimtrace.xz
CPU 0 L2C IP-based stride prefetcher
Initialize DRRIP state
Assign rand_sets[0]: 454  LLC: 2048
rand_sets[0]: 454
Assign rand_sets[1]: 1662  LLC: 2048
rand_sets[1]: 1662
Assign rand_sets[2]: 1921  LLC: 2048
rand_sets[2]: 1921
Assign rand_sets[3]: 1131  LLC: 2048
rand_sets[3]: 1131
Assign rand_sets[4]: 331  LLC: 2048
rand_sets[4]: 331
Assign rand_sets[5]: 1531  LLC: 2048
rand_sets[5]: 1531
Assign rand_sets[6]: 482  LLC: 2048
rand_sets[6]: 482
Assign rand_sets[7]: 1275  LLC: 2048
rand_sets[7]: 1275
Assign rand_sets[8]: 1876  LLC: 2048
rand_sets[8]: 1876
Assign rand_sets[9]: 2038  LLC: 2048
rand_sets[9]: 2038
Assign rand_sets[10]: 701  LLC: 2048
rand_sets[10]: 701
Assign rand_sets[11]: 479  LLC: 2048
rand_sets[11]: 479
Assign rand_sets[12]: 892  LLC: 2048
rand_sets[12]: 892
Assign rand_sets[13]: 1820  LLC: 2048
rand_sets[13]: 1820
Assign rand_sets[14]: 1505  LLC: 2048
rand_sets[14]: 1505
Assign rand_sets[15]: 1159  LLC: 2048
rand_sets[15]: 1159
Assign rand_sets[16]: 513  LLC: 2048
rand_sets[16]: 513
Assign rand_sets[17]: 703  LLC: 2048
rand_sets[17]: 703
Assign rand_sets[18]: 561  LLC: 2048
rand_sets[18]: 561
Assign rand_sets[19]: 990  LLC: 2048
rand_sets[19]: 990
Assign rand_sets[20]: 342  LLC: 2048
rand_sets[20]: 342
Assign rand_sets[21]: 882  LLC: 2048
rand_sets[21]: 882
Assign rand_sets[22]: 15  LLC: 2048
rand_sets[22]: 15
Assign rand_sets[23]: 71  LLC: 2048
rand_sets[23]: 71
Assign rand_sets[24]: 1127  LLC: 2048
rand_sets[24]: 1127
Assign rand_sets[25]: 1382  LLC: 2048
rand_sets[25]: 1382
Assign rand_sets[26]: 647  LLC: 2048
rand_sets[26]: 647
Assign rand_sets[27]: 857  LLC: 2048
rand_sets[27]: 857
Assign rand_sets[28]: 1450  LLC: 2048
rand_sets[28]: 1450
Assign rand_sets[29]: 1160  LLC: 2048
rand_sets[29]: 1160
Assign rand_sets[30]: 1852  LLC: 2048
rand_sets[30]: 1852
Assign rand_sets[31]: 1881  LLC: 2048
rand_sets[31]: 1881
Assign rand_sets[32]: 1770  LLC: 2048
rand_sets[32]: 1770
Assign rand_sets[33]: 1622  LLC: 2048
rand_sets[33]: 1622
Assign rand_sets[34]: 275  LLC: 2048
rand_sets[34]: 275
Assign rand_sets[35]: 635  LLC: 2048
rand_sets[35]: 635
Assign rand_sets[36]: 466  LLC: 2048
rand_sets[36]: 466
Assign rand_sets[37]: 1413  LLC: 2048
rand_sets[37]: 1413
Assign rand_sets[38]: 417  LLC: 2048
rand_sets[38]: 417
Assign rand_sets[39]: 472  LLC: 2048
rand_sets[39]: 472
Assign rand_sets[40]: 1340  LLC: 2048
rand_sets[40]: 1340
Assign rand_sets[41]: 852  LLC: 2048
rand_sets[41]: 852
Assign rand_sets[42]: 1365  LLC: 2048
rand_sets[42]: 1365
Assign rand_sets[43]: 47  LLC: 2048
rand_sets[43]: 47
Assign rand_sets[44]: 823  LLC: 2048
rand_sets[44]: 823
Assign rand_sets[45]: 686  LLC: 2048
rand_sets[45]: 686
Assign rand_sets[46]: 1637  LLC: 2048
rand_sets[46]: 1637
Assign rand_sets[47]: 1115  LLC: 2048
rand_sets[47]: 1115
Assign rand_sets[48]: 986  LLC: 2048
rand_sets[48]: 986
Assign rand_sets[49]: 258  LLC: 2048
rand_sets[49]: 258
Assign rand_sets[50]: 633  LLC: 2048
rand_sets[50]: 633
Assign rand_sets[51]: 920  LLC: 2048
rand_sets[51]: 920
Assign rand_sets[52]: 204  LLC: 2048
rand_sets[52]: 204
Assign rand_sets[53]: 227  LLC: 2048
rand_sets[53]: 227
Assign rand_sets[54]: 1818  LLC: 2048
rand_sets[54]: 1818
Assign rand_sets[55]: 886  LLC: 2048
rand_sets[55]: 886
Assign rand_sets[56]: 1422  LLC: 2048
rand_sets[56]: 1422
Assign rand_sets[57]: 607  LLC: 2048
rand_sets[57]: 607
Assign rand_sets[58]: 217  LLC: 2048
rand_sets[58]: 217
Assign rand_sets[59]: 1945  LLC: 2048
rand_sets[59]: 1945
Assign rand_sets[60]: 143  LLC: 2048
rand_sets[60]: 143
Assign rand_sets[61]: 1311  LLC: 2048
rand_sets[61]: 1311
Assign rand_sets[62]: 319  LLC: 2048
rand_sets[62]: 319
Assign rand_sets[63]: 1846  LLC: 2048
rand_sets[63]: 1846
warmup_instructions 100000000
simulation_instructions 100000000
champsim_seed 271

num_cpus 1
cpu_freq 4000
dram_io_freq 2400
page_size 4096
block_size 64
max_read_per_cycle 8
max_fill_per_cycle 1
dram_channels 1
dram_ranks 1
dram_banks 8
dram_rows 65536
dram_columns 128
dram_row_size 8
dram_size 4096
dram_pages 1048576

fetch_width 6
decode_width 6
exec_width 4
lq_width 2
sq_width 2
retire_width 4
scheduler_size 128
branch_mispredict_penalty 20
rob_size 256
lq_size 72
sq_size 56
num_instr_destinations_sparc 4
num_instr_destinations 2
num_instr_sources 4

itlb_set 16
itlb_way 8
itlb_rq_size 16
itlb_wq_size 16
itlb_pq_size 0
itlb_mshr_size 8
itlb_latency 1

dtlb_set 16
dtlb_way 4
dtlb_rq_size 16
dtlb_wq_size 16
dtlb_pq_size 0
dtlb_mshr_size 8
dtlb_latency 1

stlb_set 128
stlb_way 12
stlb_rq_size 32
stlb_wq_size 32
stlb_pq_size 0
stlb_mshr_size 16
stlb_latency 8

l1i_size 32
l1i_set 64
l1i_way 8
l1i_rq_size 64
l1i_wq_size 64
l1i_pq_size 8
l1i_mshr_size 8
l1i_latency 1

l1d_size 32
l1d_set 64
l1d_way 8
l1d_rq_size 64
l1d_wq_size 64
l1d_pq_size 8
l1d_mshr_size 16
l1d_latency 4

l2c_size 512
l2c_set 1024
l2c_way 8
l2c_rq_size 32
l2c_wq_size 32
l2c_pq_size 16
l2c_mshr_size 32
l2c_latency 10

llc_size 2048
llc_set 2048
llc_way 16
llc_rq_size 32
llc_wq_size 32
llc_pq_size 32
llc_mshr_size 64
llc_latency 20

dram_channel_width 8
dram_wq_size 64
dram_rq_size 64
tRP 15
tRCD 15
tCAS 12.5
dram_dbus_turn_around_time 30
dram_write_high_wm 56
dram_write_low_wm 48
min_dram_writes_per_switch 16
dram_mtps 2400
dram_dbus_return_time 13


Heartbeat CPU  0 instructions:    1000000 cycles:     702362 heartbeat IPC: 1.42377 cumulative IPC: 1.42377 (Simulation time: 0 hr 0 min 2 sec) 
Heartbeat CPU  0 instructions:    2000000 cycles:    1404584 heartbeat IPC: 1.42405 cumulative IPC: 1.42391 (Simulation time: 0 hr 0 min 4 sec) 
Heartbeat CPU  0 instructions:    3000000 cycles:    2106873 heartbeat IPC: 1.42392 cumulative IPC: 1.42391 (Simulation time: 0 hr 0 min 5 sec) 
Heartbeat CPU  0 instructions:    4000000 cycles:    2809194 heartbeat IPC: 1.42385 cumulative IPC: 1.42390 (Simulation time: 0 hr 0 min 8 sec) 
Heartbeat CPU  0 instructions:    5000000 cycles:    3511394 heartbeat IPC: 1.42410 cumulative IPC: 1.42394 (Simulation time: 0 hr 0 min 10 sec) 
Heartbeat CPU  0 instructions:    6000000 cycles:    4213723 heartbeat IPC: 1.42383 cumulative IPC: 1.42392 (Simulation time: 0 hr 0 min 12 sec) 
Heartbeat CPU  0 instructions:    7000001 cycles:    4916121 heartbeat IPC: 1.42370 cumulative IPC: 1.42389 (Simulation time: 0 hr 0 min 14 sec) 
Heartbeat CPU  0 instructions:    8000000 cycles:    5618242 heartbeat IPC: 1.42425 cumulative IPC: 1.42393 (Simulation time: 0 hr 0 min 15 sec) 
Heartbeat CPU  0 instructions:    9000001 cycles:    6320749 heartbeat IPC: 1.42347 cumulative IPC: 1.42388 (Simulation time: 0 hr 0 min 17 sec) 
Heartbeat CPU  0 instructions:   10000000 cycles:    7022946 heartbeat IPC: 1.42410 cumulative IPC: 1.42390 (Simulation time: 0 hr 0 min 19 sec) 
Heartbeat CPU  0 instructions:   11000002 cycles:    7725147 heartbeat IPC: 1.42410 cumulative IPC: 1.42392 (Simulation time: 0 hr 0 min 21 sec) 
Heartbeat CPU  0 instructions:   12000000 cycles:    8427313 heartbeat IPC: 1.42416 cumulative IPC: 1.42394 (Simulation time: 0 hr 0 min 23 sec) 
Heartbeat CPU  0 instructions:   13000000 cycles:    9129853 heartbeat IPC: 1.42341 cumulative IPC: 1.42390 (Simulation time: 0 hr 0 min 25 sec) 
Heartbeat CPU  0 instructions:   14000002 cycles:    9832122 heartbeat IPC: 1.42396 cumulative IPC: 1.42390 (Simulation time: 0 hr 0 min 27 sec) 
Heartbeat CPU  0 instructions:   15000002 cycles:   10534066 heartbeat IPC: 1.42462 cumulative IPC: 1.42395 (Simulation time: 0 hr 0 min 29 sec) 
Heartbeat CPU  0 instructions:   16000000 cycles:   11236602 heartbeat IPC: 1.42341 cumulative IPC: 1.42392 (Simulation time: 0 hr 0 min 31 sec) 
Heartbeat CPU  0 instructions:   17000000 cycles:   11939132 heartbeat IPC: 1.42343 cumulative IPC: 1.42389 (Simulation time: 0 hr 0 min 33 sec) 
Heartbeat CPU  0 instructions:   18000001 cycles:   12600057 heartbeat IPC: 1.51303 cumulative IPC: 1.42857 (Simulation time: 0 hr 0 min 35 sec) 
Heartbeat CPU  0 instructions:   19000000 cycles:   13235119 heartbeat IPC: 1.57465 cumulative IPC: 1.43557 (Simulation time: 0 hr 0 min 37 sec) 
Heartbeat CPU  0 instructions:   20000000 cycles:   13937662 heartbeat IPC: 1.42340 cumulative IPC: 1.43496 (Simulation time: 0 hr 0 min 39 sec) 
Heartbeat CPU  0 instructions:   21000000 cycles:   14640029 heartbeat IPC: 1.42376 cumulative IPC: 1.43442 (Simulation time: 0 hr 0 min 41 sec) 
Heartbeat CPU  0 instructions:   22000002 cycles:   15342330 heartbeat IPC: 1.42389 cumulative IPC: 1.43394 (Simulation time: 0 hr 0 min 43 sec) 
Heartbeat CPU  0 instructions:   23000001 cycles:   16044697 heartbeat IPC: 1.42376 cumulative IPC: 1.43350 (Simulation time: 0 hr 0 min 45 sec) 
Heartbeat CPU  0 instructions:   24000000 cycles:   16746813 heartbeat IPC: 1.42426 cumulative IPC: 1.43311 (Simulation time: 0 hr 0 min 47 sec) 
Heartbeat CPU  0 instructions:   25000001 cycles:   17449136 heartbeat IPC: 1.42385 cumulative IPC: 1.43274 (Simulation time: 0 hr 0 min 49 sec) 
Heartbeat CPU  0 instructions:   26000003 cycles:   18151770 heartbeat IPC: 1.42322 cumulative IPC: 1.43237 (Simulation time: 0 hr 0 min 51 sec) 
Heartbeat CPU  0 instructions:   27000003 cycles:   18853941 heartbeat IPC: 1.42415 cumulative IPC: 1.43206 (Simulation time: 0 hr 0 min 53 sec) 
Heartbeat CPU  0 instructions:   28000000 cycles:   19556090 heartbeat IPC: 1.42419 cumulative IPC: 1.43178 (Simulation time: 0 hr 0 min 55 sec) 
Heartbeat CPU  0 instructions:   29000000 cycles:   20258514 heartbeat IPC: 1.42364 cumulative IPC: 1.43150 (Simulation time: 0 hr 0 min 57 sec) 
Heartbeat CPU  0 instructions:   30000003 cycles:   20960872 heartbeat IPC: 1.42378 cumulative IPC: 1.43124 (Simulation time: 0 hr 0 min 59 sec) 
Heartbeat CPU  0 instructions:   31000003 cycles:   21662827 heartbeat IPC: 1.42459 cumulative IPC: 1.43102 (Simulation time: 0 hr 1 min 1 sec) 
Heartbeat CPU  0 instructions:   32000000 cycles:   22364893 heartbeat IPC: 1.42436 cumulative IPC: 1.43081 (Simulation time: 0 hr 1 min 3 sec) 
Heartbeat CPU  0 instructions:   33000001 cycles:   23067627 heartbeat IPC: 1.42301 cumulative IPC: 1.43058 (Simulation time: 0 hr 1 min 5 sec) 
Heartbeat CPU  0 instructions:   34000000 cycles:   23769747 heartbeat IPC: 1.42426 cumulative IPC: 1.43039 (Simulation time: 0 hr 1 min 7 sec) 
Heartbeat CPU  0 instructions:   35000001 cycles:   24471990 heartbeat IPC: 1.42401 cumulative IPC: 1.43021 (Simulation time: 0 hr 1 min 9 sec) 
Heartbeat CPU  0 instructions:   36000000 cycles:   25174254 heartbeat IPC: 1.42396 cumulative IPC: 1.43003 (Simulation time: 0 hr 1 min 11 sec) 
Heartbeat CPU  0 instructions:   37000000 cycles:   25876853 heartbeat IPC: 1.42329 cumulative IPC: 1.42985 (Simulation time: 0 hr 1 min 13 sec) 
Heartbeat CPU  0 instructions:   38000001 cycles:   26579041 heartbeat IPC: 1.42412 cumulative IPC: 1.42970 (Simulation time: 0 hr 1 min 15 sec) 
Heartbeat CPU  0 instructions:   39000000 cycles:   27281312 heartbeat IPC: 1.42395 cumulative IPC: 1.42955 (Simulation time: 0 hr 1 min 17 sec) 
Heartbeat CPU  0 instructions:   40000000 cycles:   27983527 heartbeat IPC: 1.42407 cumulative IPC: 1.42941 (Simulation time: 0 hr 1 min 19 sec) 
Heartbeat CPU  0 instructions:   41000000 cycles:   28588531 heartbeat IPC: 1.65288 cumulative IPC: 1.43414 (Simulation time: 0 hr 1 min 21 sec) 
Heartbeat CPU  0 instructions:   42000002 cycles:   29279905 heartbeat IPC: 1.44640 cumulative IPC: 1.43443 (Simulation time: 0 hr 1 min 23 sec) 
Heartbeat CPU  0 instructions:   43000002 cycles:   29982308 heartbeat IPC: 1.42368 cumulative IPC: 1.43418 (Simulation time: 0 hr 1 min 25 sec) 
Heartbeat CPU  0 instructions:   44000000 cycles:   30684724 heartbeat IPC: 1.42365 cumulative IPC: 1.43394 (Simulation time: 0 hr 1 min 27 sec) 
Heartbeat CPU  0 instructions:   45000003 cycles:   31387008 heartbeat IPC: 1.42393 cumulative IPC: 1.43371 (Simulation time: 0 hr 1 min 29 sec) 
Heartbeat CPU  0 instructions:   46000003 cycles:   32089213 heartbeat IPC: 1.42409 cumulative IPC: 1.43350 (Simulation time: 0 hr 1 min 31 sec) 
Heartbeat CPU  0 instructions:   47000000 cycles:   32791404 heartbeat IPC: 1.42411 cumulative IPC: 1.43330 (Simulation time: 0 hr 1 min 33 sec) 
Heartbeat CPU  0 instructions:   48000000 cycles:   33494004 heartbeat IPC: 1.42328 cumulative IPC: 1.43309 (Simulation time: 0 hr 1 min 35 sec) 
Heartbeat CPU  0 instructions:   49000000 cycles:   34195998 heartbeat IPC: 1.42451 cumulative IPC: 1.43292 (Simulation time: 0 hr 1 min 37 sec) 
Heartbeat CPU  0 instructions:   50000000 cycles:   34898303 heartbeat IPC: 1.42388 cumulative IPC: 1.43273 (Simulation time: 0 hr 1 min 39 sec) 
Heartbeat CPU  0 instructions:   51000000 cycles:   35600825 heartbeat IPC: 1.42344 cumulative IPC: 1.43255 (Simulation time: 0 hr 1 min 41 sec) 
Heartbeat CPU  0 instructions:   52000000 cycles:   36302999 heartbeat IPC: 1.42415 cumulative IPC: 1.43239 (Simulation time: 0 hr 1 min 43 sec) 
Heartbeat CPU  0 instructions:   53000000 cycles:   37005390 heartbeat IPC: 1.42371 cumulative IPC: 1.43222 (Simulation time: 0 hr 1 min 45 sec) 
Heartbeat CPU  0 instructions:   54000001 cycles:   37707445 heartbeat IPC: 1.42439 cumulative IPC: 1.43208 (Simulation time: 0 hr 1 min 47 sec) 
Heartbeat CPU  0 instructions:   55000001 cycles:   38409735 heartbeat IPC: 1.42391 cumulative IPC: 1.43193 (Simulation time: 0 hr 1 min 49 sec) 
Heartbeat CPU  0 instructions:   56000000 cycles:   39112202 heartbeat IPC: 1.42355 cumulative IPC: 1.43178 (Simulation time: 0 hr 1 min 51 sec) 
Heartbeat CPU  0 instructions:   57000000 cycles:   39814656 heartbeat IPC: 1.42358 cumulative IPC: 1.43163 (Simulation time: 0 hr 1 min 53 sec) 
Heartbeat CPU  0 instructions:   58000003 cycles:   40516982 heartbeat IPC: 1.42384 cumulative IPC: 1.43150 (Simulation time: 0 hr 1 min 55 sec) 
Heartbeat CPU  0 instructions:   59000000 cycles:   41219124 heartbeat IPC: 1.42421 cumulative IPC: 1.43137 (Simulation time: 0 hr 1 min 57 sec) 
Heartbeat CPU  0 instructions:   60000000 cycles:   41921560 heartbeat IPC: 1.42362 cumulative IPC: 1.43124 (Simulation time: 0 hr 1 min 59 sec) 
Heartbeat CPU  0 instructions:   61000000 cycles:   42623771 heartbeat IPC: 1.42407 cumulative IPC: 1.43113 (Simulation time: 0 hr 2 min 1 sec) 
Heartbeat CPU  0 instructions:   62000002 cycles:   43326027 heartbeat IPC: 1.42399 cumulative IPC: 1.43101 (Simulation time: 0 hr 2 min 3 sec) 
Heartbeat CPU  0 instructions:   63000000 cycles:   43973257 heartbeat IPC: 1.54504 cumulative IPC: 1.43269 (Simulation time: 0 hr 2 min 5 sec) 
Heartbeat CPU  0 instructions:   64000000 cycles:   44624246 heartbeat IPC: 1.53612 cumulative IPC: 1.43420 (Simulation time: 0 hr 2 min 7 sec) 
Heartbeat CPU  0 instructions:   65000000 cycles:   45326264 heartbeat IPC: 1.42446 cumulative IPC: 1.43405 (Simulation time: 0 hr 2 min 9 sec) 
Heartbeat CPU  0 instructions:   66000001 cycles:   46028347 heartbeat IPC: 1.42433 cumulative IPC: 1.43390 (Simulation time: 0 hr 2 min 11 sec) 
Heartbeat CPU  0 instructions:   67000002 cycles:   46730422 heartbeat IPC: 1.42435 cumulative IPC: 1.43376 (Simulation time: 0 hr 2 min 13 sec) 
Heartbeat CPU  0 instructions:   68000000 cycles:   47432836 heartbeat IPC: 1.42366 cumulative IPC: 1.43361 (Simulation time: 0 hr 2 min 15 sec) 
Heartbeat CPU  0 instructions:   69000000 cycles:   48135065 heartbeat IPC: 1.42404 cumulative IPC: 1.43347 (Simulation time: 0 hr 2 min 17 sec) 
Heartbeat CPU  0 instructions:   70000002 cycles:   48837159 heartbeat IPC: 1.42431 cumulative IPC: 1.43333 (Simulation time: 0 hr 2 min 20 sec) 
Heartbeat CPU  0 instructions:   71000003 cycles:   49539769 heartbeat IPC: 1.42327 cumulative IPC: 1.43319 (Simulation time: 0 hr 2 min 22 sec) 
Heartbeat CPU  0 instructions:   72000000 cycles:   50241827 heartbeat IPC: 1.42438 cumulative IPC: 1.43307 (Simulation time: 0 hr 2 min 24 sec) 
Heartbeat CPU  0 instructions:   73000001 cycles:   50944003 heartbeat IPC: 1.42415 cumulative IPC: 1.43295 (Simulation time: 0 hr 2 min 26 sec) 
Heartbeat CPU  0 instructions:   74000003 cycles:   51646370 heartbeat IPC: 1.42376 cumulative IPC: 1.43282 (Simulation time: 0 hr 2 min 28 sec) 
Heartbeat CPU  0 instructions:   75000002 cycles:   52349046 heartbeat IPC: 1.42313 cumulative IPC: 1.43269 (Simulation time: 0 hr 2 min 30 sec) 
Heartbeat CPU  0 instructions:   76000000 cycles:   53051243 heartbeat IPC: 1.42410 cumulative IPC: 1.43258 (Simulation time: 0 hr 2 min 32 sec) 
Heartbeat CPU  0 instructions:   77000003 cycles:   53753835 heartbeat IPC: 1.42331 cumulative IPC: 1.43246 (Simulation time: 0 hr 2 min 34 sec) 
Heartbeat CPU  0 instructions:   78000001 cycles:   54456350 heartbeat IPC: 1.42345 cumulative IPC: 1.43234 (Simulation time: 0 hr 2 min 36 sec) 
Heartbeat CPU  0 instructions:   79000001 cycles:   55158288 heartbeat IPC: 1.42463 cumulative IPC: 1.43224 (Simulation time: 0 hr 2 min 38 sec) 
Heartbeat CPU  0 instructions:   80000000 cycles:   55860328 heartbeat IPC: 1.42442 cumulative IPC: 1.43214 (Simulation time: 0 hr 2 min 40 sec) 
Heartbeat CPU  0 instructions:   81000002 cycles:   56562683 heartbeat IPC: 1.42378 cumulative IPC: 1.43204 (Simulation time: 0 hr 2 min 43 sec) 
Heartbeat CPU  0 instructions:   82000003 cycles:   57264933 heartbeat IPC: 1.42400 cumulative IPC: 1.43194 (Simulation time: 0 hr 2 min 45 sec) 
Heartbeat CPU  0 instructions:   83000001 cycles:   57967175 heartbeat IPC: 1.42401 cumulative IPC: 1.43184 (Simulation time: 0 hr 2 min 47 sec) 
Heartbeat CPU  0 instructions:   84000000 cycles:   58669382 heartbeat IPC: 1.42408 cumulative IPC: 1.43175 (Simulation time: 0 hr 2 min 49 sec) 
Heartbeat CPU  0 instructions:   85000000 cycles:   59357975 heartbeat IPC: 1.45224 cumulative IPC: 1.43199 (Simulation time: 0 hr 2 min 51 sec) 
Heartbeat CPU  0 instructions:   86000002 cycles:   59966951 heartbeat IPC: 1.64210 cumulative IPC: 1.43412 (Simulation time: 0 hr 2 min 53 sec) 
Heartbeat CPU  0 instructions:   87000002 cycles:   60669429 heartbeat IPC: 1.42353 cumulative IPC: 1.43400 (Simulation time: 0 hr 2 min 55 sec) 
Heartbeat CPU  0 instructions:   88000000 cycles:   61372052 heartbeat IPC: 1.42324 cumulative IPC: 1.43388 (Simulation time: 0 hr 2 min 57 sec) 
Heartbeat CPU  0 instructions:   89000001 cycles:   62074090 heartbeat IPC: 1.42443 cumulative IPC: 1.43377 (Simulation time: 0 hr 2 min 59 sec) 
Heartbeat CPU  0 instructions:   90000003 cycles:   62776437 heartbeat IPC: 1.42380 cumulative IPC: 1.43366 (Simulation time: 0 hr 3 min 1 sec) 
Heartbeat CPU  0 instructions:   91000003 cycles:   63478863 heartbeat IPC: 1.42364 cumulative IPC: 1.43355 (Simulation time: 0 hr 3 min 3 sec) 
Heartbeat CPU  0 instructions:   92000000 cycles:   64181067 heartbeat IPC: 1.42408 cumulative IPC: 1.43344 (Simulation time: 0 hr 3 min 5 sec) 
Heartbeat CPU  0 instructions:   93000002 cycles:   64883408 heartbeat IPC: 1.42381 cumulative IPC: 1.43334 (Simulation time: 0 hr 3 min 7 sec) 
Heartbeat CPU  0 instructions:   94000002 cycles:   65585409 heartbeat IPC: 1.42450 cumulative IPC: 1.43325 (Simulation time: 0 hr 3 min 8 sec) 
Heartbeat CPU  0 instructions:   95000003 cycles:   66287602 heartbeat IPC: 1.42411 cumulative IPC: 1.43315 (Simulation time: 0 hr 3 min 10 sec) 
Heartbeat CPU  0 instructions:   96000000 cycles:   66989912 heartbeat IPC: 1.42387 cumulative IPC: 1.43305 (Simulation time: 0 hr 3 min 12 sec) 
Heartbeat CPU  0 instructions:   97000000 cycles:   67692244 heartbeat IPC: 1.42383 cumulative IPC: 1.43296 (Simulation time: 0 hr 3 min 14 sec) 
Heartbeat CPU  0 instructions:   98000002 cycles:   68394412 heartbeat IPC: 1.42416 cumulative IPC: 1.43287 (Simulation time: 0 hr 3 min 16 sec) 
Heartbeat CPU  0 instructions:   99000003 cycles:   69096627 heartbeat IPC: 1.42407 cumulative IPC: 1.43278 (Simulation time: 0 hr 3 min 18 sec) 
Heartbeat CPU  0 instructions:  100000000 cycles:   69799010 heartbeat IPC: 1.42372 cumulative IPC: 1.43269 (Simulation time: 0 hr 3 min 20 sec) 

Warmup complete CPU  0 instructions:  100000001 cycles:   69799030 (Simulation time: 0 hr 3 min 20 sec) 

Heartbeat CPU  0 instructions:  101000000 cycles:   71735320 heartbeat IPC: 0.51645 cumulative IPC: 0.51645 (Simulation time: 0 hr 3 min 22 sec) 
Heartbeat CPU  0 instructions:  102000003 cycles:   73505264 heartbeat IPC: 0.56499 cumulative IPC: 0.53963 (Simulation time: 0 hr 3 min 25 sec) 
Heartbeat CPU  0 instructions:  103000003 cycles:   75380340 heartbeat IPC: 0.53331 cumulative IPC: 0.53751 (Simulation time: 0 hr 3 min 27 sec) 
Heartbeat CPU  0 instructions:  104000000 cycles:   77304319 heartbeat IPC: 0.51975 cumulative IPC: 0.53296 (Simulation time: 0 hr 3 min 29 sec) 
Heartbeat CPU  0 instructions:  105000002 cycles:   79153094 heartbeat IPC: 0.54090 cumulative IPC: 0.53453 (Simulation time: 0 hr 3 min 31 sec) 
Heartbeat CPU  0 instructions:  106000000 cycles:   80961037 heartbeat IPC: 0.55311 cumulative IPC: 0.53754 (Simulation time: 0 hr 3 min 33 sec) 
Heartbeat CPU  0 instructions:  107000003 cycles:   82881660 heartbeat IPC: 0.52067 cumulative IPC: 0.53506 (Simulation time: 0 hr 3 min 36 sec) 
Heartbeat CPU  0 instructions:  108000000 cycles:   93748829 heartbeat IPC: 0.09202 cumulative IPC: 0.33403 (Simulation time: 0 hr 3 min 38 sec) 
Heartbeat CPU  0 instructions:  109000003 cycles:  100602778 heartbeat IPC: 0.14590 cumulative IPC: 0.29217 (Simulation time: 0 hr 3 min 41 sec) 
Heartbeat CPU  0 instructions:  110000001 cycles:  102525658 heartbeat IPC: 0.52005 cumulative IPC: 0.30556 (Simulation time: 0 hr 3 min 43 sec) 
Heartbeat CPU  0 instructions:  111000000 cycles:  104460016 heartbeat IPC: 0.51697 cumulative IPC: 0.31736 (Simulation time: 0 hr 3 min 46 sec) 
Heartbeat CPU  0 instructions:  112000000 cycles:  106241561 heartbeat IPC: 0.56131 cumulative IPC: 0.32929 (Simulation time: 0 hr 3 min 48 sec) 
Heartbeat CPU  0 instructions:  113000000 cycles:  108125754 heartbeat IPC: 0.53073 cumulative IPC: 0.33919 (Simulation time: 0 hr 3 min 50 sec) 
Heartbeat CPU  0 instructions:  114000000 cycles:  110067956 heartbeat IPC: 0.51488 cumulative IPC: 0.34766 (Simulation time: 0 hr 3 min 52 sec) 
Heartbeat CPU  0 instructions:  115000001 cycles:  111913703 heartbeat IPC: 0.54179 cumulative IPC: 0.35617 (Simulation time: 0 hr 3 min 55 sec) 
Heartbeat CPU  0 instructions:  116000000 cycles:  113720904 heartbeat IPC: 0.55334 cumulative IPC: 0.36428 (Simulation time: 0 hr 3 min 57 sec) 
Heartbeat CPU  0 instructions:  117000003 cycles:  115650252 heartbeat IPC: 0.51831 cumulative IPC: 0.37076 (Simulation time: 0 hr 3 min 59 sec) 
Heartbeat CPU  0 instructions:  118000002 cycles:  117565141 heartbeat IPC: 0.52222 cumulative IPC: 0.37684 (Simulation time: 0 hr 4 min 2 sec) 
Heartbeat CPU  0 instructions:  119000002 cycles:  119322140 heartbeat IPC: 0.56915 cumulative IPC: 0.38366 (Simulation time: 0 hr 4 min 4 sec) 
Heartbeat CPU  0 instructions:  120000000 cycles:  121236426 heartbeat IPC: 0.52239 cumulative IPC: 0.38882 (Simulation time: 0 hr 4 min 6 sec) 
Heartbeat CPU  0 instructions:  121000003 cycles:  123167440 heartbeat IPC: 0.51786 cumulative IPC: 0.39349 (Simulation time: 0 hr 4 min 9 sec) 
Heartbeat CPU  0 instructions:  122000002 cycles:  124960928 heartbeat IPC: 0.55757 cumulative IPC: 0.39883 (Simulation time: 0 hr 4 min 11 sec) 
Heartbeat CPU  0 instructions:  123000002 cycles:  126822198 heartbeat IPC: 0.53727 cumulative IPC: 0.40334 (Simulation time: 0 hr 4 min 13 sec) 
Heartbeat CPU  0 instructions:  124000000 cycles:  128750135 heartbeat IPC: 0.51869 cumulative IPC: 0.40712 (Simulation time: 0 hr 4 min 15 sec) 
Heartbeat CPU  0 instructions:  125000000 cycles:  130614493 heartbeat IPC: 0.53638 cumulative IPC: 0.41108 (Simulation time: 0 hr 4 min 18 sec) 
Heartbeat CPU  0 instructions:  126000002 cycles:  132416427 heartbeat IPC: 0.55496 cumulative IPC: 0.41522 (Simulation time: 0 hr 4 min 20 sec) 
Heartbeat CPU  0 instructions:  127000002 cycles:  134462590 heartbeat IPC: 0.48872 cumulative IPC: 0.41755 (Simulation time: 0 hr 4 min 22 sec) 
Heartbeat CPU  0 instructions:  128000000 cycles:  136378644 heartbeat IPC: 0.52190 cumulative IPC: 0.42055 (Simulation time: 0 hr 4 min 25 sec) 
Heartbeat CPU  0 instructions:  129000001 cycles:  138129561 heartbeat IPC: 0.57113 cumulative IPC: 0.42441 (Simulation time: 0 hr 4 min 27 sec) 
Heartbeat CPU  0 instructions:  130000000 cycles:  143693237 heartbeat IPC: 0.17974 cumulative IPC: 0.40599 (Simulation time: 0 hr 4 min 29 sec) 
Heartbeat CPU  0 instructions:  131000003 cycles:  155898626 heartbeat IPC: 0.08193 cumulative IPC: 0.36005 (Simulation time: 0 hr 4 min 32 sec) 
Heartbeat CPU  0 instructions:  132000000 cycles:  157695584 heartbeat IPC: 0.55649 cumulative IPC: 0.36406 (Simulation time: 0 hr 4 min 34 sec) 
Heartbeat CPU  0 instructions:  133000000 cycles:  159567009 heartbeat IPC: 0.53435 cumulative IPC: 0.36761 (Simulation time: 0 hr 4 min 36 sec) 
Heartbeat CPU  0 instructions:  134000000 cycles:  161500738 heartbeat IPC: 0.51714 cumulative IPC: 0.37077 (Simulation time: 0 hr 4 min 39 sec) 
Heartbeat CPU  0 instructions:  135000000 cycles:  163372206 heartbeat IPC: 0.53434 cumulative IPC: 0.37404 (Simulation time: 0 hr 4 min 41 sec) 
Heartbeat CPU  0 instructions:  136000000 cycles:  165165638 heartbeat IPC: 0.55759 cumulative IPC: 0.37749 (Simulation time: 0 hr 4 min 43 sec) 
Heartbeat CPU  0 instructions:  137000002 cycles:  167095749 heartbeat IPC: 0.51811 cumulative IPC: 0.38028 (Simulation time: 0 hr 4 min 45 sec) 
Heartbeat CPU  0 instructions:  138000001 cycles:  169017943 heartbeat IPC: 0.52024 cumulative IPC: 0.38299 (Simulation time: 0 hr 4 min 48 sec) 
Heartbeat CPU  0 instructions:  139000001 cycles:  170773883 heartbeat IPC: 0.56950 cumulative IPC: 0.38623 (Simulation time: 0 hr 4 min 50 sec) 
Heartbeat CPU  0 instructions:  140000000 cycles:  172693660 heartbeat IPC: 0.52089 cumulative IPC: 0.38875 (Simulation time: 0 hr 4 min 52 sec) 
Heartbeat CPU  0 instructions:  141000000 cycles:  174624735 heartbeat IPC: 0.51785 cumulative IPC: 0.39113 (Simulation time: 0 hr 4 min 55 sec) 
Heartbeat CPU  0 instructions:  142000001 cycles:  176429450 heartbeat IPC: 0.55410 cumulative IPC: 0.39388 (Simulation time: 0 hr 4 min 57 sec) 
Heartbeat CPU  0 instructions:  143000001 cycles:  178279240 heartbeat IPC: 0.54060 cumulative IPC: 0.39639 (Simulation time: 0 hr 4 min 59 sec) 
Heartbeat CPU  0 instructions:  144000000 cycles:  180213554 heartbeat IPC: 0.51698 cumulative IPC: 0.39850 (Simulation time: 0 hr 5 min 2 sec) 
Heartbeat CPU  0 instructions:  145000000 cycles:  182096955 heartbeat IPC: 0.53095 cumulative IPC: 0.40072 (Simulation time: 0 hr 5 min 4 sec) 
Heartbeat CPU  0 instructions:  146000002 cycles:  183873046 heartbeat IPC: 0.56304 cumulative IPC: 0.40325 (Simulation time: 0 hr 5 min 6 sec) 
Heartbeat CPU  0 instructions:  147000003 cycles:  185800615 heartbeat IPC: 0.51879 cumulative IPC: 0.40517 (Simulation time: 0 hr 5 min 8 sec) 
Heartbeat CPU  0 instructions:  148000000 cycles:  187721085 heartbeat IPC: 0.52070 cumulative IPC: 0.40705 (Simulation time: 0 hr 5 min 11 sec) 
Heartbeat CPU  0 instructions:  149000002 cycles:  189481248 heartbeat IPC: 0.56813 cumulative IPC: 0.40942 (Simulation time: 0 hr 5 min 13 sec) 
Heartbeat CPU  0 instructions:  150000003 cycles:  191385359 heartbeat IPC: 0.52518 cumulative IPC: 0.41123 (Simulation time: 0 hr 5 min 15 sec) 
Heartbeat CPU  0 instructions:  151000003 cycles:  193311131 heartbeat IPC: 0.51927 cumulative IPC: 0.41292 (Simulation time: 0 hr 5 min 17 sec) 
Heartbeat CPU  0 instructions:  152000000 cycles:  195147713 heartbeat IPC: 0.54449 cumulative IPC: 0.41484 (Simulation time: 0 hr 5 min 19 sec) 
Heartbeat CPU  0 instructions:  153000003 cycles:  208073622 heartbeat IPC: 0.07736 cumulative IPC: 0.38330 (Simulation time: 0 hr 5 min 22 sec) 
Heartbeat CPU  0 instructions:  154000000 cycles:  213069340 heartbeat IPC: 0.20017 cumulative IPC: 0.37691 (Simulation time: 0 hr 5 min 24 sec) 
Heartbeat CPU  0 instructions:  155000000 cycles:  214954843 heartbeat IPC: 0.53036 cumulative IPC: 0.37890 (Simulation time: 0 hr 5 min 27 sec) 
Heartbeat CPU  0 instructions:  156000000 cycles:  216731619 heartbeat IPC: 0.56282 cumulative IPC: 0.38113 (Simulation time: 0 hr 5 min 29 sec) 
Heartbeat CPU  0 instructions:  157000001 cycles:  218662505 heartbeat IPC: 0.51790 cumulative IPC: 0.38290 (Simulation time: 0 hr 5 min 31 sec) 
Heartbeat CPU  0 instructions:  158000001 cycles:  220587410 heartbeat IPC: 0.51951 cumulative IPC: 0.38465 (Simulation time: 0 hr 5 min 33 sec) 
Heartbeat CPU  0 instructions:  159000000 cycles:  222347597 heartbeat IPC: 0.56812 cumulative IPC: 0.38676 (Simulation time: 0 hr 5 min 35 sec) 
Heartbeat CPU  0 instructions:  160000000 cycles:  224257772 heartbeat IPC: 0.52351 cumulative IPC: 0.38845 (Simulation time: 0 hr 5 min 38 sec) 
Heartbeat CPU  0 instructions:  161000003 cycles:  226190217 heartbeat IPC: 0.51748 cumulative IPC: 0.39005 (Simulation time: 0 hr 5 min 40 sec) 
Heartbeat CPU  0 instructions:  162000000 cycles:  228014863 heartbeat IPC: 0.54805 cumulative IPC: 0.39187 (Simulation time: 0 hr 5 min 42 sec) 
Heartbeat CPU  0 instructions:  163000003 cycles:  229846501 heartbeat IPC: 0.54596 cumulative IPC: 0.39363 (Simulation time: 0 hr 5 min 44 sec) 
Heartbeat CPU  0 instructions:  164000000 cycles:  231773487 heartbeat IPC: 0.51894 cumulative IPC: 0.39512 (Simulation time: 0 hr 5 min 47 sec) 
Heartbeat CPU  0 instructions:  165000000 cycles:  233684235 heartbeat IPC: 0.52336 cumulative IPC: 0.39662 (Simulation time: 0 hr 5 min 49 sec) 
Heartbeat CPU  0 instructions:  166000001 cycles:  235444600 heartbeat IPC: 0.56806 cumulative IPC: 0.39844 (Simulation time: 0 hr 5 min 51 sec) 
Heartbeat CPU  0 instructions:  167000000 cycles:  237368192 heartbeat IPC: 0.51986 cumulative IPC: 0.39983 (Simulation time: 0 hr 5 min 53 sec) 
Heartbeat CPU  0 instructions:  168000000 cycles:  239292360 heartbeat IPC: 0.51971 cumulative IPC: 0.40120 (Simulation time: 0 hr 5 min 56 sec) 
Heartbeat CPU  0 instructions:  169000001 cycles:  241062386 heartbeat IPC: 0.56496 cumulative IPC: 0.40289 (Simulation time: 0 hr 5 min 58 sec) 
Heartbeat CPU  0 instructions:  170000002 cycles:  242952350 heartbeat IPC: 0.52911 cumulative IPC: 0.40427 (Simulation time: 0 hr 6 min 0 sec) 
Heartbeat CPU  0 instructions:  171000001 cycles:  244884165 heartbeat IPC: 0.51765 cumulative IPC: 0.40552 (Simulation time: 0 hr 6 min 2 sec) 
Heartbeat CPU  0 instructions:  172000000 cycles:  246728062 heartbeat IPC: 0.54233 cumulative IPC: 0.40694 (Simulation time: 0 hr 6 min 4 sec) 
Heartbeat CPU  0 instructions:  173000000 cycles:  248541604 heartbeat IPC: 0.55141 cumulative IPC: 0.40841 (Simulation time: 0 hr 6 min 7 sec) 
Heartbeat CPU  0 instructions:  174000003 cycles:  250471660 heartbeat IPC: 0.51812 cumulative IPC: 0.40958 (Simulation time: 0 hr 6 min 9 sec) 
Heartbeat CPU  0 instructions:  175000000 cycles:  257725690 heartbeat IPC: 0.13785 cumulative IPC: 0.39909 (Simulation time: 0 hr 6 min 11 sec) 
Heartbeat CPU  0 instructions:  176000000 cycles:  268118950 heartbeat IPC: 0.09622 cumulative IPC: 0.38322 (Simulation time: 0 hr 6 min 14 sec) 
Heartbeat CPU  0 instructions:  177000001 cycles:  270119486 heartbeat IPC: 0.49987 cumulative IPC: 0.38438 (Simulation time: 0 hr 6 min 16 sec) 
Heartbeat CPU  0 instructions:  178000003 cycles:  272200589 heartbeat IPC: 0.48052 cumulative IPC: 0.38537 (Simulation time: 0 hr 6 min 18 sec) 
Heartbeat CPU  0 instructions:  179000002 cycles:  274140248 heartbeat IPC: 0.51555 cumulative IPC: 0.38661 (Simulation time: 0 hr 6 min 20 sec) 
Heartbeat CPU  0 instructions:  180000000 cycles:  276058841 heartbeat IPC: 0.52121 cumulative IPC: 0.38786 (Simulation time: 0 hr 6 min 22 sec) 
Heartbeat CPU  0 instructions:  181000003 cycles:  278003272 heartbeat IPC: 0.51429 cumulative IPC: 0.38904 (Simulation time: 0 hr 6 min 24 sec) 
Heartbeat CPU  0 instructions:  182000003 cycles:  279866639 heartbeat IPC: 0.53666 cumulative IPC: 0.39035 (Simulation time: 0 hr 6 min 26 sec) 
Heartbeat CPU  0 instructions:  183000000 cycles:  281709510 heartbeat IPC: 0.54263 cumulative IPC: 0.39167 (Simulation time: 0 hr 6 min 29 sec) 
Heartbeat CPU  0 instructions:  184000000 cycles:  283653251 heartbeat IPC: 0.51447 cumulative IPC: 0.39279 (Simulation time: 0 hr 6 min 31 sec) 
Heartbeat CPU  0 instructions:  185000002 cycles:  285583883 heartbeat IPC: 0.51797 cumulative IPC: 0.39391 (Simulation time: 0 hr 6 min 33 sec) 
Heartbeat CPU  0 instructions:  186000001 cycles:  287374847 heartbeat IPC: 0.55836 cumulative IPC: 0.39526 (Simulation time: 0 hr 6 min 35 sec) 
Heartbeat CPU  0 instructions:  187000000 cycles:  289307510 heartbeat IPC: 0.51742 cumulative IPC: 0.39634 (Simulation time: 0 hr 6 min 37 sec) 
Heartbeat CPU  0 instructions:  188000000 cycles:  291253382 heartbeat IPC: 0.51391 cumulative IPC: 0.39737 (Simulation time: 0 hr 6 min 39 sec) 
Heartbeat CPU  0 instructions:  189000000 cycles:  293056772 heartbeat IPC: 0.55451 cumulative IPC: 0.39864 (Simulation time: 0 hr 6 min 41 sec) 
Heartbeat CPU  0 instructions:  190000000 cycles:  294957915 heartbeat IPC: 0.52600 cumulative IPC: 0.39972 (Simulation time: 0 hr 6 min 43 sec) 
Heartbeat CPU  0 instructions:  191000000 cycles:  296902154 heartbeat IPC: 0.51434 cumulative IPC: 0.40070 (Simulation time: 0 hr 6 min 45 sec) 
Heartbeat CPU  0 instructions:  192000000 cycles:  298776706 heartbeat IPC: 0.53346 cumulative IPC: 0.40179 (Simulation time: 0 hr 6 min 47 sec) 
Heartbeat CPU  0 instructions:  193000001 cycles:  300607061 heartbeat IPC: 0.54634 cumulative IPC: 0.40293 (Simulation time: 0 hr 6 min 49 sec) 
Heartbeat CPU  0 instructions:  194000000 cycles:  302548345 heartbeat IPC: 0.51512 cumulative IPC: 0.40387 (Simulation time: 0 hr 6 min 51 sec) 
Heartbeat CPU  0 instructions:  195000002 cycles:  304479174 heartbeat IPC: 0.51791 cumulative IPC: 0.40481 (Simulation time: 0 hr 6 min 54 sec) 
Heartbeat CPU  0 instructions:  196000000 cycles:  306266415 heartbeat IPC: 0.55952 cumulative IPC: 0.40598 (Simulation time: 0 hr 6 min 56 sec) 
Heartbeat CPU  0 instructions:  197000000 cycles:  308306655 heartbeat IPC: 0.49014 cumulative IPC: 0.40670 (Simulation time: 0 hr 6 min 58 sec) 
Heartbeat CPU  0 instructions:  198000003 cycles:  322740825 heartbeat IPC: 0.06928 cumulative IPC: 0.38744 (Simulation time: 0 hr 7 min 0 sec) 
Heartbeat CPU  0 instructions:  199000001 cycles:  325897004 heartbeat IPC: 0.31684 cumulative IPC: 0.38657 (Simulation time: 0 hr 7 min 2 sec) 
Heartbeat CPU  0 instructions:  200000000 cycles:  327805231 heartbeat IPC: 0.52405 cumulative IPC: 0.38759 (Simulation time: 0 hr 7 min 4 sec) 
Finished CPU 0 instructions: 100000000 cycles: 258006229 cumulative IPC: 0.38759 (Simulation time: 0 hr 7 min 5 sec) 

ChampSim completed all CPUs

[ROI Statistics]
Core_0_instructions 100000000
Core_0_cycles 258006229
Core_0_IPC 0.38759

Core_0_branch_prediction_accuracy 99.16976
Core_0_branch_MPKI 0.01138
Core_0_average_ROB_occupancy_at_mispredict 253.39104

Core_0_L1D_total_access 50895511
Core_0_L1D_total_hit 50072787
Core_0_L1D_total_miss 822724
Core_0_L1D_loads 34161484
Core_0_L1D_load_hit 33503001
Core_0_L1D_load_miss 658483
Core_0_L1D_RFOs 16734027
Core_0_L1D_RFO_hit 16569786
Core_0_L1D_RFO_miss 164241
Core_0_L1D_prefetches 0
Core_0_L1D_prefetch_hit 0
Core_0_L1D_prefetch_miss 0
Core_0_L1D_writebacks 0
Core_0_L1D_writeback_hit 0
Core_0_L1D_writeback_miss 0
Core_0_L1D_prefetch_requested 0
Core_0_L1D_prefetch_issued 0
Core_0_L1D_prefetch_useful 0
Core_0_L1D_prefetch_useless 0
Core_0_L1D_prefetch_late 0
Core_0_L1D_average_miss_latency 101.14824

Core_0_L1I_total_access 26650732
Core_0_L1I_total_hit 26650732
Core_0_L1I_total_miss 0
Core_0_L1I_loads 26650732
Core_0_L1I_load_hit 26650732
Core_0_L1I_load_miss 0
Core_0_L1I_RFOs 0
Core_0_L1I_RFO_hit 0
Core_0_L1I_RFO_miss 0
Core_0_L1I_prefetches 0
Core_0_L1I_prefetch_hit 0
Core_0_L1I_prefetch_miss 0
Core_0_L1I_writebacks 0
Core_0_L1I_writeback_hit 0
Core_0_L1I_writeback_miss 0
Core_0_L1I_prefetch_requested 0
Core_0_L1I_prefetch_issued 0
Core_0_L1I_prefetch_useful 0
Core_0_L1I_prefetch_useless 0
Core_0_L1I_prefetch_late 0
Core_0_L1I_average_miss_latency -nan

Core_0_L2C_total_access 2681891
Core_0_L2C_total_hit 2138461
Core_0_L2C_total_miss 543430
Core_0_L2C_loads 658483
Core_0_L2C_load_hit 634939
Core_0_L2C_load_miss 23544
Core_0_L2C_RFOs 164241
Core_0_L2C_RFO_hit 79
Core_0_L2C_RFO_miss 164162
Core_0_L2C_prefetches 1688027
Core_0_L2C_prefetch_hit 1332493
Core_0_L2C_prefetch_miss 355534
Core_0_L2C_writebacks 171140
Core_0_L2C_writeback_hit 170950
Core_0_L2C_writeback_miss 190
Core_0_L2C_prefetch_requested 3511529
Core_0_L2C_prefetch_issued 3196191
Core_0_L2C_prefetch_useful 669774
Core_0_L2C_prefetch_useless 882
Core_0_L2C_prefetch_late 13
Core_0_L2C_average_miss_latency 248.22991

Core_0_LLC_total_access 708490
Core_0_LLC_total_hit 137977
Core_0_LLC_total_miss 570513
Core_0_LLC_loads 23531
Core_0_LLC_load_hit 4673
Core_0_LLC_load_miss 18858
Core_0_LLC_RFOs 164162
Core_0_LLC_RFO_hit 24208
Core_0_LLC_RFO_miss 139954
Core_0_LLC_prefetches 357011
Core_0_LLC_prefetch_hit 77952
Core_0_LLC_prefetch_miss 279059
Core_0_LLC_writebacks 163786
Core_0_LLC_writeback_hit 31144
Core_0_LLC_writeback_miss 132642
Core_0_LLC_prefetch_requested 0
Core_0_LLC_prefetch_issued 0
Core_0_LLC_prefetch_useful 2386
Core_0_LLC_prefetch_useless 567178
Core_0_LLC_prefetch_late 1
Core_0_LLC_average_miss_latency 174.42833

Core_0_major_page_fault 0
Core_0_minor_page_fault 8761

CPU 0 L2C PC-based stride prefetcher final stats
Channel_0_RQ_row_buffer_hit 108200
Channel_0_RQ_row_buffer_miss 329671
Channel_0_WQ_row_buffer_hit 17713
Channel_0_WQ_row_buffer_miss 122068
Channel_0_WQ_full 0
Channel_0_dbus_congested 172476

avg_congested_cycle 10
