*************************************************
   ChampSim Multicore Out-of-Order Simulator
   Last compiled: Dec 22 2023 20:25:48
*************************************************

trace_0 ./test_trace/436.cactusADM-1804B.champsimtrace.xz
CPU 0 L1D next line prefetcher
CPU 0 L2C IP-based stride prefetcher
Initialize DRRIP state
Assign rand_sets[0]: 454  LLC: 2048
rand_sets[0]: 454
Assign rand_sets[1]: 1662  LLC: 2048
rand_sets[1]: 1662
Assign rand_sets[2]: 1921  LLC: 2048
rand_sets[2]: 1921
Assign rand_sets[3]: 1131  LLC: 2048
rand_sets[3]: 1131
Assign rand_sets[4]: 331  LLC: 2048
rand_sets[4]: 331
Assign rand_sets[5]: 1531  LLC: 2048
rand_sets[5]: 1531
Assign rand_sets[6]: 482  LLC: 2048
rand_sets[6]: 482
Assign rand_sets[7]: 1275  LLC: 2048
rand_sets[7]: 1275
Assign rand_sets[8]: 1876  LLC: 2048
rand_sets[8]: 1876
Assign rand_sets[9]: 2038  LLC: 2048
rand_sets[9]: 2038
Assign rand_sets[10]: 701  LLC: 2048
rand_sets[10]: 701
Assign rand_sets[11]: 479  LLC: 2048
rand_sets[11]: 479
Assign rand_sets[12]: 892  LLC: 2048
rand_sets[12]: 892
Assign rand_sets[13]: 1820  LLC: 2048
rand_sets[13]: 1820
Assign rand_sets[14]: 1505  LLC: 2048
rand_sets[14]: 1505
Assign rand_sets[15]: 1159  LLC: 2048
rand_sets[15]: 1159
Assign rand_sets[16]: 513  LLC: 2048
rand_sets[16]: 513
Assign rand_sets[17]: 703  LLC: 2048
rand_sets[17]: 703
Assign rand_sets[18]: 561  LLC: 2048
rand_sets[18]: 561
Assign rand_sets[19]: 990  LLC: 2048
rand_sets[19]: 990
Assign rand_sets[20]: 342  LLC: 2048
rand_sets[20]: 342
Assign rand_sets[21]: 882  LLC: 2048
rand_sets[21]: 882
Assign rand_sets[22]: 15  LLC: 2048
rand_sets[22]: 15
Assign rand_sets[23]: 71  LLC: 2048
rand_sets[23]: 71
Assign rand_sets[24]: 1127  LLC: 2048
rand_sets[24]: 1127
Assign rand_sets[25]: 1382  LLC: 2048
rand_sets[25]: 1382
Assign rand_sets[26]: 647  LLC: 2048
rand_sets[26]: 647
Assign rand_sets[27]: 857  LLC: 2048
rand_sets[27]: 857
Assign rand_sets[28]: 1450  LLC: 2048
rand_sets[28]: 1450
Assign rand_sets[29]: 1160  LLC: 2048
rand_sets[29]: 1160
Assign rand_sets[30]: 1852  LLC: 2048
rand_sets[30]: 1852
Assign rand_sets[31]: 1881  LLC: 2048
rand_sets[31]: 1881
Assign rand_sets[32]: 1770  LLC: 2048
rand_sets[32]: 1770
Assign rand_sets[33]: 1622  LLC: 2048
rand_sets[33]: 1622
Assign rand_sets[34]: 275  LLC: 2048
rand_sets[34]: 275
Assign rand_sets[35]: 635  LLC: 2048
rand_sets[35]: 635
Assign rand_sets[36]: 466  LLC: 2048
rand_sets[36]: 466
Assign rand_sets[37]: 1413  LLC: 2048
rand_sets[37]: 1413
Assign rand_sets[38]: 417  LLC: 2048
rand_sets[38]: 417
Assign rand_sets[39]: 472  LLC: 2048
rand_sets[39]: 472
Assign rand_sets[40]: 1340  LLC: 2048
rand_sets[40]: 1340
Assign rand_sets[41]: 852  LLC: 2048
rand_sets[41]: 852
Assign rand_sets[42]: 1365  LLC: 2048
rand_sets[42]: 1365
Assign rand_sets[43]: 47  LLC: 2048
rand_sets[43]: 47
Assign rand_sets[44]: 823  LLC: 2048
rand_sets[44]: 823
Assign rand_sets[45]: 686  LLC: 2048
rand_sets[45]: 686
Assign rand_sets[46]: 1637  LLC: 2048
rand_sets[46]: 1637
Assign rand_sets[47]: 1115  LLC: 2048
rand_sets[47]: 1115
Assign rand_sets[48]: 986  LLC: 2048
rand_sets[48]: 986
Assign rand_sets[49]: 258  LLC: 2048
rand_sets[49]: 258
Assign rand_sets[50]: 633  LLC: 2048
rand_sets[50]: 633
Assign rand_sets[51]: 920  LLC: 2048
rand_sets[51]: 920
Assign rand_sets[52]: 204  LLC: 2048
rand_sets[52]: 204
Assign rand_sets[53]: 227  LLC: 2048
rand_sets[53]: 227
Assign rand_sets[54]: 1818  LLC: 2048
rand_sets[54]: 1818
Assign rand_sets[55]: 886  LLC: 2048
rand_sets[55]: 886
Assign rand_sets[56]: 1422  LLC: 2048
rand_sets[56]: 1422
Assign rand_sets[57]: 607  LLC: 2048
rand_sets[57]: 607
Assign rand_sets[58]: 217  LLC: 2048
rand_sets[58]: 217
Assign rand_sets[59]: 1945  LLC: 2048
rand_sets[59]: 1945
Assign rand_sets[60]: 143  LLC: 2048
rand_sets[60]: 143
Assign rand_sets[61]: 1311  LLC: 2048
rand_sets[61]: 1311
Assign rand_sets[62]: 319  LLC: 2048
rand_sets[62]: 319
Assign rand_sets[63]: 1846  LLC: 2048
rand_sets[63]: 1846
warmup_instructions 100000000
simulation_instructions 100000000
champsim_seed 271

num_cpus 1
cpu_freq 4000
dram_io_freq 2400
page_size 4096
block_size 64
max_read_per_cycle 8
max_fill_per_cycle 1
dram_channels 1
dram_ranks 1
dram_banks 8
dram_rows 65536
dram_columns 128
dram_row_size 8
dram_size 4096
dram_pages 1048576

fetch_width 6
decode_width 6
exec_width 4
lq_width 2
sq_width 2
retire_width 4
scheduler_size 128
branch_mispredict_penalty 20
rob_size 256
lq_size 72
sq_size 56
num_instr_destinations_sparc 4
num_instr_destinations 2
num_instr_sources 4

itlb_set 16
itlb_way 8
itlb_rq_size 16
itlb_wq_size 16
itlb_pq_size 0
itlb_mshr_size 8
itlb_latency 1

dtlb_set 16
dtlb_way 4
dtlb_rq_size 16
dtlb_wq_size 16
dtlb_pq_size 0
dtlb_mshr_size 8
dtlb_latency 1

stlb_set 128
stlb_way 12
stlb_rq_size 32
stlb_wq_size 32
stlb_pq_size 0
stlb_mshr_size 16
stlb_latency 8

l1i_size 32
l1i_set 64
l1i_way 8
l1i_rq_size 64
l1i_wq_size 64
l1i_pq_size 8
l1i_mshr_size 8
l1i_latency 1

l1d_size 32
l1d_set 64
l1d_way 8
l1d_rq_size 64
l1d_wq_size 64
l1d_pq_size 8
l1d_mshr_size 16
l1d_latency 4

l2c_size 512
l2c_set 1024
l2c_way 8
l2c_rq_size 32
l2c_wq_size 32
l2c_pq_size 16
l2c_mshr_size 32
l2c_latency 10

llc_size 2048
llc_set 2048
llc_way 16
llc_rq_size 32
llc_wq_size 32
llc_pq_size 32
llc_mshr_size 64
llc_latency 20

dram_channel_width 8
dram_wq_size 64
dram_rq_size 64
tRP 15
tRCD 15
tCAS 12.5
dram_dbus_turn_around_time 30
dram_write_high_wm 56
dram_write_low_wm 48
min_dram_writes_per_switch 16
dram_mtps 2400
dram_dbus_return_time 13


Heartbeat CPU  0 instructions:    1000000 cycles:     702167 heartbeat IPC: 1.42416 cumulative IPC: 1.42416 (Simulation time: 0 hr 0 min 2 sec) 
Heartbeat CPU  0 instructions:    2000000 cycles:    1404092 heartbeat IPC: 1.42465 cumulative IPC: 1.42441 (Simulation time: 0 hr 0 min 3 sec) 
Heartbeat CPU  0 instructions:    3000000 cycles:    2106232 heartbeat IPC: 1.42422 cumulative IPC: 1.42434 (Simulation time: 0 hr 0 min 5 sec) 
Heartbeat CPU  0 instructions:    4000000 cycles:    2808359 heartbeat IPC: 1.42424 cumulative IPC: 1.42432 (Simulation time: 0 hr 0 min 7 sec) 
Heartbeat CPU  0 instructions:    5000000 cycles:    3510266 heartbeat IPC: 1.42469 cumulative IPC: 1.42439 (Simulation time: 0 hr 0 min 9 sec) 
Heartbeat CPU  0 instructions:    6000000 cycles:    4212372 heartbeat IPC: 1.42429 cumulative IPC: 1.42438 (Simulation time: 0 hr 0 min 11 sec) 
Heartbeat CPU  0 instructions:    7000001 cycles:    4914628 heartbeat IPC: 1.42398 cumulative IPC: 1.42432 (Simulation time: 0 hr 0 min 13 sec) 
Heartbeat CPU  0 instructions:    8000000 cycles:    5616445 heartbeat IPC: 1.42487 cumulative IPC: 1.42439 (Simulation time: 0 hr 0 min 15 sec) 
Heartbeat CPU  0 instructions:    9000001 cycles:    6318672 heartbeat IPC: 1.42404 cumulative IPC: 1.42435 (Simulation time: 0 hr 0 min 16 sec) 
Heartbeat CPU  0 instructions:   10000000 cycles:    7020712 heartbeat IPC: 1.42442 cumulative IPC: 1.42436 (Simulation time: 0 hr 0 min 18 sec) 
Heartbeat CPU  0 instructions:   11000002 cycles:    7722676 heartbeat IPC: 1.42458 cumulative IPC: 1.42438 (Simulation time: 0 hr 0 min 20 sec) 
Heartbeat CPU  0 instructions:   12000000 cycles:    8424610 heartbeat IPC: 1.42463 cumulative IPC: 1.42440 (Simulation time: 0 hr 0 min 22 sec) 
Heartbeat CPU  0 instructions:   13000000 cycles:    9126948 heartbeat IPC: 1.42382 cumulative IPC: 1.42435 (Simulation time: 0 hr 0 min 24 sec) 
Heartbeat CPU  0 instructions:   14000002 cycles:    9829009 heartbeat IPC: 1.42438 cumulative IPC: 1.42436 (Simulation time: 0 hr 0 min 26 sec) 
Heartbeat CPU  0 instructions:   15000002 cycles:   10530699 heartbeat IPC: 1.42513 cumulative IPC: 1.42441 (Simulation time: 0 hr 0 min 28 sec) 
Heartbeat CPU  0 instructions:   16000000 cycles:   11233099 heartbeat IPC: 1.42369 cumulative IPC: 1.42436 (Simulation time: 0 hr 0 min 30 sec) 
Heartbeat CPU  0 instructions:   17000000 cycles:   11935414 heartbeat IPC: 1.42386 cumulative IPC: 1.42433 (Simulation time: 0 hr 0 min 32 sec) 
Heartbeat CPU  0 instructions:   18000001 cycles:   12594460 heartbeat IPC: 1.51735 cumulative IPC: 1.42920 (Simulation time: 0 hr 0 min 33 sec) 
Heartbeat CPU  0 instructions:   19000000 cycles:   13226716 heartbeat IPC: 1.58164 cumulative IPC: 1.43649 (Simulation time: 0 hr 0 min 35 sec) 
Heartbeat CPU  0 instructions:   20000000 cycles:   13928984 heartbeat IPC: 1.42396 cumulative IPC: 1.43585 (Simulation time: 0 hr 0 min 37 sec) 
Heartbeat CPU  0 instructions:   21000000 cycles:   14631147 heartbeat IPC: 1.42417 cumulative IPC: 1.43529 (Simulation time: 0 hr 0 min 39 sec) 
Heartbeat CPU  0 instructions:   22000002 cycles:   15333176 heartbeat IPC: 1.42445 cumulative IPC: 1.43480 (Simulation time: 0 hr 0 min 41 sec) 
Heartbeat CPU  0 instructions:   23000001 cycles:   16035305 heartbeat IPC: 1.42424 cumulative IPC: 1.43434 (Simulation time: 0 hr 0 min 43 sec) 
Heartbeat CPU  0 instructions:   24000000 cycles:   16737160 heartbeat IPC: 1.42479 cumulative IPC: 1.43394 (Simulation time: 0 hr 0 min 45 sec) 
Heartbeat CPU  0 instructions:   25000001 cycles:   17439271 heartbeat IPC: 1.42428 cumulative IPC: 1.43355 (Simulation time: 0 hr 0 min 47 sec) 
Heartbeat CPU  0 instructions:   26000003 cycles:   18141590 heartbeat IPC: 1.42386 cumulative IPC: 1.43317 (Simulation time: 0 hr 0 min 48 sec) 
Heartbeat CPU  0 instructions:   27000003 cycles:   18843555 heartbeat IPC: 1.42457 cumulative IPC: 1.43285 (Simulation time: 0 hr 0 min 50 sec) 
Heartbeat CPU  0 instructions:   28000000 cycles:   19545499 heartbeat IPC: 1.42461 cumulative IPC: 1.43255 (Simulation time: 0 hr 0 min 52 sec) 
Heartbeat CPU  0 instructions:   29000000 cycles:   20247684 heartbeat IPC: 1.42413 cumulative IPC: 1.43226 (Simulation time: 0 hr 0 min 54 sec) 
Heartbeat CPU  0 instructions:   30000003 cycles:   20949819 heartbeat IPC: 1.42423 cumulative IPC: 1.43199 (Simulation time: 0 hr 0 min 56 sec) 
Heartbeat CPU  0 instructions:   31000003 cycles:   21651506 heartbeat IPC: 1.42514 cumulative IPC: 1.43177 (Simulation time: 0 hr 0 min 58 sec) 
Heartbeat CPU  0 instructions:   32000000 cycles:   22353376 heartbeat IPC: 1.42476 cumulative IPC: 1.43155 (Simulation time: 0 hr 1 min 0 sec) 
Heartbeat CPU  0 instructions:   33000001 cycles:   23055858 heartbeat IPC: 1.42353 cumulative IPC: 1.43131 (Simulation time: 0 hr 1 min 2 sec) 
Heartbeat CPU  0 instructions:   34000000 cycles:   23757832 heartbeat IPC: 1.42455 cumulative IPC: 1.43111 (Simulation time: 0 hr 1 min 4 sec) 
Heartbeat CPU  0 instructions:   35000001 cycles:   24459724 heartbeat IPC: 1.42472 cumulative IPC: 1.43092 (Simulation time: 0 hr 1 min 6 sec) 
Heartbeat CPU  0 instructions:   36000000 cycles:   25161694 heartbeat IPC: 1.42456 cumulative IPC: 1.43075 (Simulation time: 0 hr 1 min 7 sec) 
Heartbeat CPU  0 instructions:   37000000 cycles:   25864048 heartbeat IPC: 1.42378 cumulative IPC: 1.43056 (Simulation time: 0 hr 1 min 9 sec) 
Heartbeat CPU  0 instructions:   38000001 cycles:   26566024 heartbeat IPC: 1.42455 cumulative IPC: 1.43040 (Simulation time: 0 hr 1 min 11 sec) 
Heartbeat CPU  0 instructions:   39000000 cycles:   27267948 heartbeat IPC: 1.42465 cumulative IPC: 1.43025 (Simulation time: 0 hr 1 min 13 sec) 
Heartbeat CPU  0 instructions:   40000000 cycles:   27969929 heartbeat IPC: 1.42454 cumulative IPC: 1.43011 (Simulation time: 0 hr 1 min 15 sec) 
Heartbeat CPU  0 instructions:   41000000 cycles:   28570965 heartbeat IPC: 1.66379 cumulative IPC: 1.43502 (Simulation time: 0 hr 1 min 17 sec) 
Heartbeat CPU  0 instructions:   42000002 cycles:   29261618 heartbeat IPC: 1.44791 cumulative IPC: 1.43533 (Simulation time: 0 hr 1 min 19 sec) 
Heartbeat CPU  0 instructions:   43000002 cycles:   29963781 heartbeat IPC: 1.42417 cumulative IPC: 1.43507 (Simulation time: 0 hr 1 min 21 sec) 
Heartbeat CPU  0 instructions:   44000000 cycles:   30665896 heartbeat IPC: 1.42427 cumulative IPC: 1.43482 (Simulation time: 0 hr 1 min 22 sec) 
Heartbeat CPU  0 instructions:   45000003 cycles:   31367890 heartbeat IPC: 1.42452 cumulative IPC: 1.43459 (Simulation time: 0 hr 1 min 24 sec) 
Heartbeat CPU  0 instructions:   46000003 cycles:   32069823 heartbeat IPC: 1.42464 cumulative IPC: 1.43437 (Simulation time: 0 hr 1 min 26 sec) 
Heartbeat CPU  0 instructions:   47000000 cycles:   32771787 heartbeat IPC: 1.42457 cumulative IPC: 1.43416 (Simulation time: 0 hr 1 min 28 sec) 
Heartbeat CPU  0 instructions:   48000000 cycles:   33474121 heartbeat IPC: 1.42382 cumulative IPC: 1.43394 (Simulation time: 0 hr 1 min 30 sec) 
Heartbeat CPU  0 instructions:   49000000 cycles:   34175859 heartbeat IPC: 1.42503 cumulative IPC: 1.43376 (Simulation time: 0 hr 1 min 32 sec) 
Heartbeat CPU  0 instructions:   50000000 cycles:   34877946 heartbeat IPC: 1.42432 cumulative IPC: 1.43357 (Simulation time: 0 hr 1 min 34 sec) 
Heartbeat CPU  0 instructions:   51000000 cycles:   35580220 heartbeat IPC: 1.42395 cumulative IPC: 1.43338 (Simulation time: 0 hr 1 min 36 sec) 
Heartbeat CPU  0 instructions:   52000000 cycles:   36282109 heartbeat IPC: 1.42473 cumulative IPC: 1.43321 (Simulation time: 0 hr 1 min 38 sec) 
Heartbeat CPU  0 instructions:   53000000 cycles:   36984233 heartbeat IPC: 1.42425 cumulative IPC: 1.43304 (Simulation time: 0 hr 1 min 40 sec) 
Heartbeat CPU  0 instructions:   54000001 cycles:   37686065 heartbeat IPC: 1.42484 cumulative IPC: 1.43289 (Simulation time: 0 hr 1 min 41 sec) 
Heartbeat CPU  0 instructions:   55000001 cycles:   38388091 heartbeat IPC: 1.42445 cumulative IPC: 1.43274 (Simulation time: 0 hr 1 min 43 sec) 
Heartbeat CPU  0 instructions:   56000000 cycles:   39090296 heartbeat IPC: 1.42408 cumulative IPC: 1.43258 (Simulation time: 0 hr 1 min 45 sec) 
Heartbeat CPU  0 instructions:   57000000 cycles:   39792519 heartbeat IPC: 1.42405 cumulative IPC: 1.43243 (Simulation time: 0 hr 1 min 47 sec) 
Heartbeat CPU  0 instructions:   58000003 cycles:   40494527 heartbeat IPC: 1.42449 cumulative IPC: 1.43229 (Simulation time: 0 hr 1 min 49 sec) 
Heartbeat CPU  0 instructions:   59000000 cycles:   41196415 heartbeat IPC: 1.42472 cumulative IPC: 1.43216 (Simulation time: 0 hr 1 min 51 sec) 
Heartbeat CPU  0 instructions:   60000000 cycles:   41898615 heartbeat IPC: 1.42410 cumulative IPC: 1.43203 (Simulation time: 0 hr 1 min 53 sec) 
Heartbeat CPU  0 instructions:   61000000 cycles:   42600559 heartbeat IPC: 1.42462 cumulative IPC: 1.43191 (Simulation time: 0 hr 1 min 55 sec) 
Heartbeat CPU  0 instructions:   62000002 cycles:   43302488 heartbeat IPC: 1.42465 cumulative IPC: 1.43179 (Simulation time: 0 hr 1 min 56 sec) 
Heartbeat CPU  0 instructions:   63000000 cycles:   43947308 heartbeat IPC: 1.55082 cumulative IPC: 1.43353 (Simulation time: 0 hr 1 min 58 sec) 
Heartbeat CPU  0 instructions:   64000000 cycles:   44596041 heartbeat IPC: 1.54147 cumulative IPC: 1.43510 (Simulation time: 0 hr 2 min 0 sec) 
Heartbeat CPU  0 instructions:   65000000 cycles:   45297917 heartbeat IPC: 1.42475 cumulative IPC: 1.43494 (Simulation time: 0 hr 2 min 2 sec) 
Heartbeat CPU  0 instructions:   66000001 cycles:   45999705 heartbeat IPC: 1.42493 cumulative IPC: 1.43479 (Simulation time: 0 hr 2 min 4 sec) 
Heartbeat CPU  0 instructions:   67000002 cycles:   46701572 heartbeat IPC: 1.42477 cumulative IPC: 1.43464 (Simulation time: 0 hr 2 min 6 sec) 
Heartbeat CPU  0 instructions:   68000000 cycles:   47403726 heartbeat IPC: 1.42419 cumulative IPC: 1.43449 (Simulation time: 0 hr 2 min 8 sec) 
Heartbeat CPU  0 instructions:   69000000 cycles:   48105731 heartbeat IPC: 1.42449 cumulative IPC: 1.43434 (Simulation time: 0 hr 2 min 10 sec) 
Heartbeat CPU  0 instructions:   70000002 cycles:   48807628 heartbeat IPC: 1.42471 cumulative IPC: 1.43420 (Simulation time: 0 hr 2 min 11 sec) 
Heartbeat CPU  0 instructions:   71000003 cycles:   49509996 heartbeat IPC: 1.42376 cumulative IPC: 1.43405 (Simulation time: 0 hr 2 min 13 sec) 
Heartbeat CPU  0 instructions:   72000000 cycles:   50211843 heartbeat IPC: 1.42481 cumulative IPC: 1.43392 (Simulation time: 0 hr 2 min 15 sec) 
Heartbeat CPU  0 instructions:   73000001 cycles:   50913726 heartbeat IPC: 1.42474 cumulative IPC: 1.43380 (Simulation time: 0 hr 2 min 17 sec) 
Heartbeat CPU  0 instructions:   74000003 cycles:   51615810 heartbeat IPC: 1.42433 cumulative IPC: 1.43367 (Simulation time: 0 hr 2 min 19 sec) 
Heartbeat CPU  0 instructions:   75000002 cycles:   52318225 heartbeat IPC: 1.42366 cumulative IPC: 1.43353 (Simulation time: 0 hr 2 min 21 sec) 
Heartbeat CPU  0 instructions:   76000000 cycles:   53020156 heartbeat IPC: 1.42464 cumulative IPC: 1.43342 (Simulation time: 0 hr 2 min 23 sec) 
Heartbeat CPU  0 instructions:   77000003 cycles:   53722535 heartbeat IPC: 1.42374 cumulative IPC: 1.43329 (Simulation time: 0 hr 2 min 24 sec) 
Heartbeat CPU  0 instructions:   78000001 cycles:   54424852 heartbeat IPC: 1.42386 cumulative IPC: 1.43317 (Simulation time: 0 hr 2 min 26 sec) 
Heartbeat CPU  0 instructions:   79000001 cycles:   55126520 heartbeat IPC: 1.42518 cumulative IPC: 1.43307 (Simulation time: 0 hr 2 min 28 sec) 
Heartbeat CPU  0 instructions:   80000000 cycles:   55828338 heartbeat IPC: 1.42487 cumulative IPC: 1.43296 (Simulation time: 0 hr 2 min 30 sec) 
Heartbeat CPU  0 instructions:   81000002 cycles:   56530456 heartbeat IPC: 1.42426 cumulative IPC: 1.43286 (Simulation time: 0 hr 2 min 32 sec) 
Heartbeat CPU  0 instructions:   82000003 cycles:   57232455 heartbeat IPC: 1.42450 cumulative IPC: 1.43275 (Simulation time: 0 hr 2 min 34 sec) 
Heartbeat CPU  0 instructions:   83000001 cycles:   57934508 heartbeat IPC: 1.42439 cumulative IPC: 1.43265 (Simulation time: 0 hr 2 min 36 sec) 
Heartbeat CPU  0 instructions:   84000000 cycles:   58636487 heartbeat IPC: 1.42454 cumulative IPC: 1.43256 (Simulation time: 0 hr 2 min 38 sec) 
Heartbeat CPU  0 instructions:   85000000 cycles:   59324328 heartbeat IPC: 1.45382 cumulative IPC: 1.43280 (Simulation time: 0 hr 2 min 40 sec) 
Heartbeat CPU  0 instructions:   86000002 cycles:   59929385 heartbeat IPC: 1.65274 cumulative IPC: 1.43502 (Simulation time: 0 hr 2 min 42 sec) 
Heartbeat CPU  0 instructions:   87000002 cycles:   60631630 heartbeat IPC: 1.42400 cumulative IPC: 1.43489 (Simulation time: 0 hr 2 min 44 sec) 
Heartbeat CPU  0 instructions:   88000000 cycles:   61333953 heartbeat IPC: 1.42384 cumulative IPC: 1.43477 (Simulation time: 0 hr 2 min 46 sec) 
Heartbeat CPU  0 instructions:   89000001 cycles:   62035751 heartbeat IPC: 1.42491 cumulative IPC: 1.43466 (Simulation time: 0 hr 2 min 47 sec) 
Heartbeat CPU  0 instructions:   90000003 cycles:   62737849 heartbeat IPC: 1.42431 cumulative IPC: 1.43454 (Simulation time: 0 hr 2 min 49 sec) 
Heartbeat CPU  0 instructions:   91000003 cycles:   63439993 heartbeat IPC: 1.42421 cumulative IPC: 1.43443 (Simulation time: 0 hr 2 min 51 sec) 
Heartbeat CPU  0 instructions:   92000000 cycles:   64141949 heartbeat IPC: 1.42459 cumulative IPC: 1.43432 (Simulation time: 0 hr 2 min 53 sec) 
Heartbeat CPU  0 instructions:   93000002 cycles:   64843986 heartbeat IPC: 1.42443 cumulative IPC: 1.43421 (Simulation time: 0 hr 2 min 55 sec) 
Heartbeat CPU  0 instructions:   94000002 cycles:   65545783 heartbeat IPC: 1.42491 cumulative IPC: 1.43411 (Simulation time: 0 hr 2 min 57 sec) 
Heartbeat CPU  0 instructions:   95000003 cycles:   66247706 heartbeat IPC: 1.42466 cumulative IPC: 1.43401 (Simulation time: 0 hr 2 min 59 sec) 
Heartbeat CPU  0 instructions:   96000000 cycles:   66949781 heartbeat IPC: 1.42435 cumulative IPC: 1.43391 (Simulation time: 0 hr 3 min 1 sec) 
Heartbeat CPU  0 instructions:   97000000 cycles:   67651865 heartbeat IPC: 1.42433 cumulative IPC: 1.43381 (Simulation time: 0 hr 3 min 3 sec) 
Heartbeat CPU  0 instructions:   98000002 cycles:   68353773 heartbeat IPC: 1.42469 cumulative IPC: 1.43372 (Simulation time: 0 hr 3 min 4 sec) 
Heartbeat CPU  0 instructions:   99000003 cycles:   69055733 heartbeat IPC: 1.42458 cumulative IPC: 1.43362 (Simulation time: 0 hr 3 min 6 sec) 
Heartbeat CPU  0 instructions:  100000000 cycles:   69757891 heartbeat IPC: 1.42418 cumulative IPC: 1.43353 (Simulation time: 0 hr 3 min 8 sec) 

Warmup complete CPU  0 instructions:  100000001 cycles:   69757911 (Simulation time: 0 hr 3 min 8 sec) 

Heartbeat CPU  0 instructions:  101000000 cycles:   71660527 heartbeat IPC: 0.52559 cumulative IPC: 0.52559 (Simulation time: 0 hr 3 min 10 sec) 
Heartbeat CPU  0 instructions:  102000003 cycles:   73395016 heartbeat IPC: 0.57654 cumulative IPC: 0.54989 (Simulation time: 0 hr 3 min 13 sec) 
Heartbeat CPU  0 instructions:  103000003 cycles:   75238947 heartbeat IPC: 0.54232 cumulative IPC: 0.54734 (Simulation time: 0 hr 3 min 15 sec) 
Heartbeat CPU  0 instructions:  104000000 cycles:   77130243 heartbeat IPC: 0.52874 cumulative IPC: 0.54257 (Simulation time: 0 hr 3 min 17 sec) 
Heartbeat CPU  0 instructions:  105000002 cycles:   78944745 heartbeat IPC: 0.55112 cumulative IPC: 0.54426 (Simulation time: 0 hr 3 min 19 sec) 
Heartbeat CPU  0 instructions:  106000000 cycles:   80717708 heartbeat IPC: 0.56403 cumulative IPC: 0.54746 (Simulation time: 0 hr 3 min 21 sec) 
Heartbeat CPU  0 instructions:  107000003 cycles:   82605413 heartbeat IPC: 0.52975 cumulative IPC: 0.54485 (Simulation time: 0 hr 3 min 23 sec) 
Heartbeat CPU  0 instructions:  108000000 cycles:   93357977 heartbeat IPC: 0.09300 cumulative IPC: 0.33898 (Simulation time: 0 hr 3 min 26 sec) 
Heartbeat CPU  0 instructions:  109000003 cycles:  100129284 heartbeat IPC: 0.14768 cumulative IPC: 0.29633 (Simulation time: 0 hr 3 min 28 sec) 
Heartbeat CPU  0 instructions:  110000001 cycles:  102016806 heartbeat IPC: 0.52979 cumulative IPC: 0.30999 (Simulation time: 0 hr 3 min 30 sec) 
Heartbeat CPU  0 instructions:  111000000 cycles:  103912242 heartbeat IPC: 0.52758 cumulative IPC: 0.32207 (Simulation time: 0 hr 3 min 32 sec) 
Heartbeat CPU  0 instructions:  112000000 cycles:  105657191 heartbeat IPC: 0.57308 cumulative IPC: 0.33427 (Simulation time: 0 hr 3 min 34 sec) 
Heartbeat CPU  0 instructions:  113000000 cycles:  107503806 heartbeat IPC: 0.54153 cumulative IPC: 0.34441 (Simulation time: 0 hr 3 min 37 sec) 
Heartbeat CPU  0 instructions:  114000000 cycles:  109408972 heartbeat IPC: 0.52489 cumulative IPC: 0.35308 (Simulation time: 0 hr 3 min 39 sec) 
Heartbeat CPU  0 instructions:  115000001 cycles:  111222408 heartbeat IPC: 0.55144 cumulative IPC: 0.36176 (Simulation time: 0 hr 3 min 41 sec) 
Heartbeat CPU  0 instructions:  116000000 cycles:  112996421 heartbeat IPC: 0.56369 cumulative IPC: 0.37004 (Simulation time: 0 hr 3 min 43 sec) 
Heartbeat CPU  0 instructions:  117000003 cycles:  114891925 heartbeat IPC: 0.52757 cumulative IPC: 0.37666 (Simulation time: 0 hr 3 min 45 sec) 
Heartbeat CPU  0 instructions:  118000002 cycles:  116773986 heartbeat IPC: 0.53133 cumulative IPC: 0.38285 (Simulation time: 0 hr 3 min 47 sec) 
Heartbeat CPU  0 instructions:  119000002 cycles:  118497737 heartbeat IPC: 0.58013 cumulative IPC: 0.38982 (Simulation time: 0 hr 3 min 49 sec) 
Heartbeat CPU  0 instructions:  120000000 cycles:  120379049 heartbeat IPC: 0.53154 cumulative IPC: 0.39509 (Simulation time: 0 hr 3 min 51 sec) 
Heartbeat CPU  0 instructions:  121000003 cycles:  122272444 heartbeat IPC: 0.52815 cumulative IPC: 0.39989 (Simulation time: 0 hr 3 min 53 sec) 
Heartbeat CPU  0 instructions:  122000003 cycles:  124028719 heartbeat IPC: 0.56939 cumulative IPC: 0.40537 (Simulation time: 0 hr 3 min 55 sec) 
Heartbeat CPU  0 instructions:  123000002 cycles:  125856845 heartbeat IPC: 0.54701 cumulative IPC: 0.40999 (Simulation time: 0 hr 3 min 58 sec) 
Heartbeat CPU  0 instructions:  124000000 cycles:  127754096 heartbeat IPC: 0.52708 cumulative IPC: 0.41382 (Simulation time: 0 hr 4 min 0 sec) 
Heartbeat CPU  0 instructions:  125000000 cycles:  129588151 heartbeat IPC: 0.54524 cumulative IPC: 0.41785 (Simulation time: 0 hr 4 min 2 sec) 
Heartbeat CPU  0 instructions:  126000002 cycles:  131356095 heartbeat IPC: 0.56563 cumulative IPC: 0.42209 (Simulation time: 0 hr 4 min 4 sec) 
Heartbeat CPU  0 instructions:  127000002 cycles:  133368841 heartbeat IPC: 0.49683 cumulative IPC: 0.42446 (Simulation time: 0 hr 4 min 6 sec) 
Heartbeat CPU  0 instructions:  128000000 cycles:  135252156 heartbeat IPC: 0.53098 cumulative IPC: 0.42752 (Simulation time: 0 hr 4 min 8 sec) 
Heartbeat CPU  0 instructions:  129000001 cycles:  136970555 heartbeat IPC: 0.58194 cumulative IPC: 0.43147 (Simulation time: 0 hr 4 min 10 sec) 
Heartbeat CPU  0 instructions:  130000000 cycles:  142473003 heartbeat IPC: 0.18174 cumulative IPC: 0.41257 (Simulation time: 0 hr 4 min 12 sec) 
Heartbeat CPU  0 instructions:  131000003 cycles:  154558280 heartbeat IPC: 0.08275 cumulative IPC: 0.36556 (Simulation time: 0 hr 4 min 15 sec) 
Heartbeat CPU  0 instructions:  132000000 cycles:  156319185 heartbeat IPC: 0.56789 cumulative IPC: 0.36968 (Simulation time: 0 hr 4 min 17 sec) 
Heartbeat CPU  0 instructions:  133000000 cycles:  158152223 heartbeat IPC: 0.54554 cumulative IPC: 0.37333 (Simulation time: 0 hr 4 min 19 sec) 
Heartbeat CPU  0 instructions:  134000000 cycles:  160049411 heartbeat IPC: 0.52710 cumulative IPC: 0.37656 (Simulation time: 0 hr 4 min 21 sec) 
Heartbeat CPU  0 instructions:  135000000 cycles:  161883280 heartbeat IPC: 0.54530 cumulative IPC: 0.37992 (Simulation time: 0 hr 4 min 23 sec) 
Heartbeat CPU  0 instructions:  136000000 cycles:  163640676 heartbeat IPC: 0.56902 cumulative IPC: 0.38346 (Simulation time: 0 hr 4 min 25 sec) 
Heartbeat CPU  0 instructions:  137000002 cycles:  165537421 heartbeat IPC: 0.52722 cumulative IPC: 0.38630 (Simulation time: 0 hr 4 min 27 sec) 
Heartbeat CPU  0 instructions:  138000001 cycles:  167425010 heartbeat IPC: 0.52978 cumulative IPC: 0.38908 (Simulation time: 0 hr 4 min 30 sec) 
Heartbeat CPU  0 instructions:  139000001 cycles:  169146021 heartbeat IPC: 0.58105 cumulative IPC: 0.39240 (Simulation time: 0 hr 4 min 32 sec) 
Heartbeat CPU  0 instructions:  140000000 cycles:  171030795 heartbeat IPC: 0.53057 cumulative IPC: 0.39497 (Simulation time: 0 hr 4 min 34 sec) 
Heartbeat CPU  0 instructions:  141000000 cycles:  172927613 heartbeat IPC: 0.52720 cumulative IPC: 0.39740 (Simulation time: 0 hr 4 min 36 sec) 
Heartbeat CPU  0 instructions:  142000001 cycles:  174700401 heartbeat IPC: 0.56408 cumulative IPC: 0.40022 (Simulation time: 0 hr 4 min 38 sec) 
Heartbeat CPU  0 instructions:  143000001 cycles:  176513218 heartbeat IPC: 0.55163 cumulative IPC: 0.40279 (Simulation time: 0 hr 4 min 40 sec) 
Heartbeat CPU  0 instructions:  144000000 cycles:  178409845 heartbeat IPC: 0.52725 cumulative IPC: 0.40496 (Simulation time: 0 hr 4 min 42 sec) 
Heartbeat CPU  0 instructions:  145000000 cycles:  180261396 heartbeat IPC: 0.54009 cumulative IPC: 0.40723 (Simulation time: 0 hr 4 min 44 sec) 
Heartbeat CPU  0 instructions:  146000002 cycles:  182003900 heartbeat IPC: 0.57389 cumulative IPC: 0.40981 (Simulation time: 0 hr 4 min 46 sec) 
Heartbeat CPU  0 instructions:  147000003 cycles:  183896641 heartbeat IPC: 0.52833 cumulative IPC: 0.41178 (Simulation time: 0 hr 4 min 49 sec) 
Heartbeat CPU  0 instructions:  148000000 cycles:  185784280 heartbeat IPC: 0.52976 cumulative IPC: 0.41370 (Simulation time: 0 hr 4 min 51 sec) 
Heartbeat CPU  0 instructions:  149000002 cycles:  187511927 heartbeat IPC: 0.57882 cumulative IPC: 0.41612 (Simulation time: 0 hr 4 min 53 sec) 
Heartbeat CPU  0 instructions:  150000003 cycles:  189382788 heartbeat IPC: 0.53451 cumulative IPC: 0.41797 (Simulation time: 0 hr 4 min 55 sec) 
Heartbeat CPU  0 instructions:  151000003 cycles:  191274370 heartbeat IPC: 0.52866 cumulative IPC: 0.41970 (Simulation time: 0 hr 4 min 57 sec) 
Heartbeat CPU  0 instructions:  152000000 cycles:  193078720 heartbeat IPC: 0.55421 cumulative IPC: 0.42166 (Simulation time: 0 hr 4 min 59 sec) 
Heartbeat CPU  0 instructions:  153000003 cycles:  205881827 heartbeat IPC: 0.07811 cumulative IPC: 0.38935 (Simulation time: 0 hr 5 min 2 sec) 
Heartbeat CPU  0 instructions:  154000000 cycles:  210801538 heartbeat IPC: 0.20326 cumulative IPC: 0.38286 (Simulation time: 0 hr 5 min 4 sec) 
Heartbeat CPU  0 instructions:  155000000 cycles:  212653862 heartbeat IPC: 0.53986 cumulative IPC: 0.38490 (Simulation time: 0 hr 5 min 6 sec) 
Heartbeat CPU  0 instructions:  156000000 cycles:  214394396 heartbeat IPC: 0.57454 cumulative IPC: 0.38718 (Simulation time: 0 hr 5 min 8 sec) 
Heartbeat CPU  0 instructions:  157000001 cycles:  216288200 heartbeat IPC: 0.52804 cumulative IPC: 0.38900 (Simulation time: 0 hr 5 min 11 sec) 
Heartbeat CPU  0 instructions:  158000001 cycles:  218178009 heartbeat IPC: 0.52915 cumulative IPC: 0.39078 (Simulation time: 0 hr 5 min 13 sec) 
Heartbeat CPU  0 instructions:  159000000 cycles:  219904395 heartbeat IPC: 0.57924 cumulative IPC: 0.39295 (Simulation time: 0 hr 5 min 15 sec) 
Heartbeat CPU  0 instructions:  160000000 cycles:  221779973 heartbeat IPC: 0.53317 cumulative IPC: 0.39468 (Simulation time: 0 hr 5 min 17 sec) 
Heartbeat CPU  0 instructions:  161000003 cycles:  223677553 heartbeat IPC: 0.52699 cumulative IPC: 0.39631 (Simulation time: 0 hr 5 min 19 sec) 
Heartbeat CPU  0 instructions:  162000000 cycles:  225468734 heartbeat IPC: 0.55829 cumulative IPC: 0.39817 (Simulation time: 0 hr 5 min 21 sec) 
Heartbeat CPU  0 instructions:  163000003 cycles:  227267779 heartbeat IPC: 0.55585 cumulative IPC: 0.39997 (Simulation time: 0 hr 5 min 23 sec) 
Heartbeat CPU  0 instructions:  164000000 cycles:  229160928 heartbeat IPC: 0.52822 cumulative IPC: 0.40150 (Simulation time: 0 hr 5 min 25 sec) 
Heartbeat CPU  0 instructions:  165000000 cycles:  231037116 heartbeat IPC: 0.53300 cumulative IPC: 0.40303 (Simulation time: 0 hr 5 min 28 sec) 
Heartbeat CPU  0 instructions:  166000001 cycles:  232760801 heartbeat IPC: 0.58015 cumulative IPC: 0.40490 (Simulation time: 0 hr 5 min 30 sec) 
Heartbeat CPU  0 instructions:  167000000 cycles:  234649852 heartbeat IPC: 0.52937 cumulative IPC: 0.40633 (Simulation time: 0 hr 5 min 32 sec) 
Heartbeat CPU  0 instructions:  168000000 cycles:  236542195 heartbeat IPC: 0.52845 cumulative IPC: 0.40771 (Simulation time: 0 hr 5 min 34 sec) 
Heartbeat CPU  0 instructions:  169000001 cycles:  238276200 heartbeat IPC: 0.57670 cumulative IPC: 0.40945 (Simulation time: 0 hr 5 min 36 sec) 
Heartbeat CPU  0 instructions:  170000002 cycles:  240131014 heartbeat IPC: 0.53914 cumulative IPC: 0.41086 (Simulation time: 0 hr 5 min 38 sec) 
Heartbeat CPU  0 instructions:  171000001 cycles:  242028846 heartbeat IPC: 0.52692 cumulative IPC: 0.41214 (Simulation time: 0 hr 5 min 41 sec) 
Heartbeat CPU  0 instructions:  172000000 cycles:  243837992 heartbeat IPC: 0.55275 cumulative IPC: 0.41360 (Simulation time: 0 hr 5 min 43 sec) 
Heartbeat CPU  0 instructions:  173000000 cycles:  245618867 heartbeat IPC: 0.56152 cumulative IPC: 0.41510 (Simulation time: 0 hr 5 min 45 sec) 
Heartbeat CPU  0 instructions:  174000003 cycles:  247514845 heartbeat IPC: 0.52743 cumulative IPC: 0.41630 (Simulation time: 0 hr 5 min 47 sec) 
Heartbeat CPU  0 instructions:  175000000 cycles:  254694857 heartbeat IPC: 0.13928 cumulative IPC: 0.40554 (Simulation time: 0 hr 5 min 50 sec) 
Heartbeat CPU  0 instructions:  176000000 cycles:  264975731 heartbeat IPC: 0.09727 cumulative IPC: 0.38931 (Simulation time: 0 hr 5 min 52 sec) 
Heartbeat CPU  0 instructions:  177000001 cycles:  266937772 heartbeat IPC: 0.50967 cumulative IPC: 0.39051 (Simulation time: 0 hr 5 min 55 sec) 
Heartbeat CPU  0 instructions:  178000003 cycles:  268984843 heartbeat IPC: 0.48850 cumulative IPC: 0.39151 (Simulation time: 0 hr 5 min 57 sec) 
Heartbeat CPU  0 instructions:  179000002 cycles:  270890399 heartbeat IPC: 0.52478 cumulative IPC: 0.39278 (Simulation time: 0 hr 5 min 59 sec) 
Heartbeat CPU  0 instructions:  180000000 cycles:  272773702 heartbeat IPC: 0.53098 cumulative IPC: 0.39406 (Simulation time: 0 hr 6 min 1 sec) 
Heartbeat CPU  0 instructions:  181000003 cycles:  274684133 heartbeat IPC: 0.52344 cumulative IPC: 0.39526 (Simulation time: 0 hr 6 min 3 sec) 
Heartbeat CPU  0 instructions:  182000003 cycles:  276510947 heartbeat IPC: 0.54740 cumulative IPC: 0.39661 (Simulation time: 0 hr 6 min 6 sec) 
Heartbeat CPU  0 instructions:  183000000 cycles:  278319746 heartbeat IPC: 0.55285 cumulative IPC: 0.39796 (Simulation time: 0 hr 6 min 8 sec) 
Heartbeat CPU  0 instructions:  184000000 cycles:  280228497 heartbeat IPC: 0.52390 cumulative IPC: 0.39911 (Simulation time: 0 hr 6 min 10 sec) 
Heartbeat CPU  0 instructions:  185000002 cycles:  282127245 heartbeat IPC: 0.52666 cumulative IPC: 0.40025 (Simulation time: 0 hr 6 min 12 sec) 
Heartbeat CPU  0 instructions:  186000001 cycles:  283886414 heartbeat IPC: 0.56845 cumulative IPC: 0.40163 (Simulation time: 0 hr 6 min 14 sec) 
Heartbeat CPU  0 instructions:  187000000 cycles:  285782536 heartbeat IPC: 0.52739 cumulative IPC: 0.40273 (Simulation time: 0 hr 6 min 16 sec) 
Heartbeat CPU  0 instructions:  188000000 cycles:  287692412 heartbeat IPC: 0.52359 cumulative IPC: 0.40379 (Simulation time: 0 hr 6 min 19 sec) 
Heartbeat CPU  0 instructions:  189000000 cycles:  289462393 heartbeat IPC: 0.56498 cumulative IPC: 0.40509 (Simulation time: 0 hr 6 min 21 sec) 
Heartbeat CPU  0 instructions:  190000000 cycles:  291328264 heartbeat IPC: 0.53594 cumulative IPC: 0.40619 (Simulation time: 0 hr 6 min 23 sec) 
Heartbeat CPU  0 instructions:  191000000 cycles:  293239222 heartbeat IPC: 0.52330 cumulative IPC: 0.40719 (Simulation time: 0 hr 6 min 25 sec) 
Heartbeat CPU  0 instructions:  192000000 cycles:  295081702 heartbeat IPC: 0.54275 cumulative IPC: 0.40830 (Simulation time: 0 hr 6 min 27 sec) 
Heartbeat CPU  0 instructions:  193000001 cycles:  296875822 heartbeat IPC: 0.55738 cumulative IPC: 0.40948 (Simulation time: 0 hr 6 min 29 sec) 
Heartbeat CPU  0 instructions:  194000000 cycles:  298786542 heartbeat IPC: 0.52336 cumulative IPC: 0.41043 (Simulation time: 0 hr 6 min 32 sec) 
Heartbeat CPU  0 instructions:  195000002 cycles:  300684382 heartbeat IPC: 0.52692 cumulative IPC: 0.41139 (Simulation time: 0 hr 6 min 34 sec) 
Heartbeat CPU  0 instructions:  196000000 cycles:  302438357 heartbeat IPC: 0.57013 cumulative IPC: 0.41258 (Simulation time: 0 hr 6 min 36 sec) 
Heartbeat CPU  0 instructions:  197000000 cycles:  304445396 heartbeat IPC: 0.49825 cumulative IPC: 0.41332 (Simulation time: 0 hr 6 min 38 sec) 
Heartbeat CPU  0 instructions:  198000003 cycles:  318736403 heartbeat IPC: 0.06997 cumulative IPC: 0.39361 (Simulation time: 0 hr 6 min 41 sec) 
Heartbeat CPU  0 instructions:  199000001 cycles:  321831679 heartbeat IPC: 0.32307 cumulative IPC: 0.39274 (Simulation time: 0 hr 6 min 43 sec) 
Heartbeat CPU  0 instructions:  200000000 cycles:  323702844 heartbeat IPC: 0.53443 cumulative IPC: 0.39379 (Simulation time: 0 hr 6 min 45 sec) 
Finished CPU 0 instructions: 100000000 cycles: 253944961 cumulative IPC: 0.39379 (Simulation time: 0 hr 6 min 45 sec) 

ChampSim completed all CPUs

[ROI Statistics]
Core_0_instructions 100000000
Core_0_cycles 253944961
Core_0_IPC 0.39379

Core_0_branch_prediction_accuracy 99.16976
Core_0_branch_MPKI 0.01138
Core_0_average_ROB_occupancy_at_mispredict 253.39367

Core_0_L1D_total_access 83750972
Core_0_L1D_total_hit 82906335
Core_0_L1D_total_miss 844637
Core_0_L1D_loads 34100898
Core_0_L1D_load_hit 34070468
Core_0_L1D_load_miss 30430
Core_0_L1D_RFOs 16693160
Core_0_L1D_RFO_hit 16528632
Core_0_L1D_RFO_miss 164528
Core_0_L1D_prefetches 32956914
Core_0_L1D_prefetch_hit 32307235
Core_0_L1D_prefetch_miss 649679
Core_0_L1D_writebacks 0
Core_0_L1D_writeback_hit 0
Core_0_L1D_writeback_miss 0
Core_0_L1D_prefetch_requested 81149114
Core_0_L1D_prefetch_issued 78619782
Core_0_L1D_prefetch_useful 1250450
Core_0_L1D_prefetch_useless 37832
Core_0_L1D_prefetch_late 1577
Core_0_L1D_average_miss_latency 379661.38607

Core_0_L1I_total_access 26512793
Core_0_L1I_total_hit 26512793
Core_0_L1I_total_miss 0
Core_0_L1I_loads 26512793
Core_0_L1I_load_hit 26512793
Core_0_L1I_load_miss 0
Core_0_L1I_RFOs 0
Core_0_L1I_RFO_hit 0
Core_0_L1I_RFO_miss 0
Core_0_L1I_prefetches 0
Core_0_L1I_prefetch_hit 0
Core_0_L1I_prefetch_miss 0
Core_0_L1I_writebacks 0
Core_0_L1I_writeback_hit 0
Core_0_L1I_writeback_miss 0
Core_0_L1I_prefetch_requested 0
Core_0_L1I_prefetch_issued 0
Core_0_L1I_prefetch_useful 0
Core_0_L1I_prefetch_useless 0
Core_0_L1I_prefetch_late 0
Core_0_L1I_average_miss_latency -nan

Core_0_L2C_total_access 2638271
Core_0_L2C_total_hit 2094703
Core_0_L2C_total_miss 543568
Core_0_L2C_loads 28883
Core_0_L2C_load_hit 22519
Core_0_L2C_load_miss 6364
Core_0_L2C_RFOs 164431
Core_0_L2C_RFO_hit 348
Core_0_L2C_RFO_miss 164083
Core_0_L2C_prefetches 2274613
Core_0_L2C_prefetch_hit 1901700
Core_0_L2C_prefetch_miss 372913
Core_0_L2C_writebacks 170344
Core_0_L2C_writeback_hit 170136
Core_0_L2C_writeback_miss 208
Core_0_L2C_prefetch_requested 3366429
Core_0_L2C_prefetch_issued 3223706
Core_0_L2C_prefetch_useful 14340
Core_0_L2C_prefetch_useless 705397
Core_0_L2C_prefetch_late 0
Core_0_L2C_average_miss_latency 270.99677

Core_0_LLC_total_access 715153
Core_0_LLC_total_hit 137410
Core_0_LLC_total_miss 577743
Core_0_LLC_loads 6364
Core_0_LLC_load_hit 1396
Core_0_LLC_load_miss 4968
Core_0_LLC_RFOs 164083
Core_0_LLC_RFO_hit 22275
Core_0_LLC_RFO_miss 141808
Core_0_LLC_prefetches 380874
Core_0_LLC_prefetch_hit 84571
Core_0_LLC_prefetch_miss 296303
Core_0_LLC_writebacks 163832
Core_0_LLC_writeback_hit 29168
Core_0_LLC_writeback_miss 134664
Core_0_LLC_prefetch_requested 0
Core_0_LLC_prefetch_issued 0
Core_0_LLC_prefetch_useful 3672
Core_0_LLC_prefetch_useless 624962
Core_0_LLC_prefetch_late 0
Core_0_LLC_average_miss_latency 190.44046

Core_0_major_page_fault 0
Core_0_minor_page_fault 8761

CPU 0 L1D next line prefetcher final stats
CPU 0 L2C PC-based stride prefetcher final stats
Channel_0_RQ_row_buffer_hit 115629
Channel_0_RQ_row_buffer_miss 327446
Channel_0_WQ_row_buffer_hit 14008
Channel_0_WQ_row_buffer_miss 128975
Channel_0_WQ_full 0
Channel_0_dbus_congested 189620

avg_congested_cycle 10
