*************************************************
   ChampSim Multicore Out-of-Order Simulator
   Last compiled: Dec 22 2023 21:07:57
*************************************************

trace_0 ./test_trace/436.cactusADM-1804B.champsimtrace.xz
CPU 0 L1D next line prefetcher
CPU 0 L2C next line prefetcher
Initialize SHIP state
warmup_instructions 100000000
simulation_instructions 100000000
champsim_seed 271

num_cpus 1
cpu_freq 4000
dram_io_freq 2400
page_size 4096
block_size 64
max_read_per_cycle 8
max_fill_per_cycle 1
dram_channels 1
dram_ranks 1
dram_banks 8
dram_rows 65536
dram_columns 128
dram_row_size 8
dram_size 4096
dram_pages 1048576

fetch_width 6
decode_width 6
exec_width 4
lq_width 2
sq_width 2
retire_width 4
scheduler_size 128
branch_mispredict_penalty 20
rob_size 256
lq_size 72
sq_size 56
num_instr_destinations_sparc 4
num_instr_destinations 2
num_instr_sources 4

itlb_set 16
itlb_way 8
itlb_rq_size 16
itlb_wq_size 16
itlb_pq_size 0
itlb_mshr_size 8
itlb_latency 1

dtlb_set 16
dtlb_way 4
dtlb_rq_size 16
dtlb_wq_size 16
dtlb_pq_size 0
dtlb_mshr_size 8
dtlb_latency 1

stlb_set 128
stlb_way 12
stlb_rq_size 32
stlb_wq_size 32
stlb_pq_size 0
stlb_mshr_size 16
stlb_latency 8

l1i_size 32
l1i_set 64
l1i_way 8
l1i_rq_size 64
l1i_wq_size 64
l1i_pq_size 8
l1i_mshr_size 8
l1i_latency 1

l1d_size 32
l1d_set 64
l1d_way 8
l1d_rq_size 64
l1d_wq_size 64
l1d_pq_size 8
l1d_mshr_size 16
l1d_latency 4

l2c_size 512
l2c_set 1024
l2c_way 8
l2c_rq_size 32
l2c_wq_size 32
l2c_pq_size 16
l2c_mshr_size 32
l2c_latency 10

llc_size 2048
llc_set 2048
llc_way 16
llc_rq_size 32
llc_wq_size 32
llc_pq_size 32
llc_mshr_size 64
llc_latency 20

dram_channel_width 8
dram_wq_size 64
dram_rq_size 64
tRP 15
tRCD 15
tCAS 12.5
dram_dbus_turn_around_time 30
dram_write_high_wm 56
dram_write_low_wm 48
min_dram_writes_per_switch 16
dram_mtps 2400
dram_dbus_return_time 13


Heartbeat CPU  0 instructions:    1000000 cycles:     702152 heartbeat IPC: 1.42419 cumulative IPC: 1.42419 (Simulation time: 0 hr 0 min 2 sec) 
Heartbeat CPU  0 instructions:    2000000 cycles:    1404075 heartbeat IPC: 1.42466 cumulative IPC: 1.42443 (Simulation time: 0 hr 0 min 4 sec) 
Heartbeat CPU  0 instructions:    3000000 cycles:    2106216 heartbeat IPC: 1.42422 cumulative IPC: 1.42436 (Simulation time: 0 hr 0 min 6 sec) 
Heartbeat CPU  0 instructions:    4000000 cycles:    2808347 heartbeat IPC: 1.42424 cumulative IPC: 1.42433 (Simulation time: 0 hr 0 min 8 sec) 
Heartbeat CPU  0 instructions:    5000000 cycles:    3510252 heartbeat IPC: 1.42469 cumulative IPC: 1.42440 (Simulation time: 0 hr 0 min 10 sec) 
Heartbeat CPU  0 instructions:    6000000 cycles:    4212361 heartbeat IPC: 1.42428 cumulative IPC: 1.42438 (Simulation time: 0 hr 0 min 12 sec) 
Heartbeat CPU  0 instructions:    7000001 cycles:    4914613 heartbeat IPC: 1.42399 cumulative IPC: 1.42432 (Simulation time: 0 hr 0 min 14 sec) 
Heartbeat CPU  0 instructions:    8000000 cycles:    5616429 heartbeat IPC: 1.42487 cumulative IPC: 1.42439 (Simulation time: 0 hr 0 min 16 sec) 
Heartbeat CPU  0 instructions:    9000001 cycles:    6318661 heartbeat IPC: 1.42403 cumulative IPC: 1.42435 (Simulation time: 0 hr 0 min 18 sec) 
Heartbeat CPU  0 instructions:   10000000 cycles:    7020696 heartbeat IPC: 1.42443 cumulative IPC: 1.42436 (Simulation time: 0 hr 0 min 20 sec) 
Heartbeat CPU  0 instructions:   11000002 cycles:    7722658 heartbeat IPC: 1.42458 cumulative IPC: 1.42438 (Simulation time: 0 hr 0 min 22 sec) 
Heartbeat CPU  0 instructions:   12000000 cycles:    8424591 heartbeat IPC: 1.42463 cumulative IPC: 1.42440 (Simulation time: 0 hr 0 min 23 sec) 
Heartbeat CPU  0 instructions:   13000000 cycles:    9126930 heartbeat IPC: 1.42381 cumulative IPC: 1.42436 (Simulation time: 0 hr 0 min 25 sec) 
Heartbeat CPU  0 instructions:   14000002 cycles:    9828987 heartbeat IPC: 1.42439 cumulative IPC: 1.42436 (Simulation time: 0 hr 0 min 27 sec) 
Heartbeat CPU  0 instructions:   15000002 cycles:   10530673 heartbeat IPC: 1.42514 cumulative IPC: 1.42441 (Simulation time: 0 hr 0 min 29 sec) 
Heartbeat CPU  0 instructions:   16000000 cycles:   11233075 heartbeat IPC: 1.42368 cumulative IPC: 1.42437 (Simulation time: 0 hr 0 min 31 sec) 
Heartbeat CPU  0 instructions:   17000000 cycles:   11935390 heartbeat IPC: 1.42386 cumulative IPC: 1.42434 (Simulation time: 0 hr 0 min 33 sec) 
Heartbeat CPU  0 instructions:   18000001 cycles:   12594436 heartbeat IPC: 1.51735 cumulative IPC: 1.42920 (Simulation time: 0 hr 0 min 35 sec) 
Heartbeat CPU  0 instructions:   19000000 cycles:   13226689 heartbeat IPC: 1.58164 cumulative IPC: 1.43649 (Simulation time: 0 hr 0 min 37 sec) 
Heartbeat CPU  0 instructions:   20000000 cycles:   13928953 heartbeat IPC: 1.42397 cumulative IPC: 1.43586 (Simulation time: 0 hr 0 min 39 sec) 
Heartbeat CPU  0 instructions:   21000000 cycles:   14631114 heartbeat IPC: 1.42417 cumulative IPC: 1.43530 (Simulation time: 0 hr 0 min 41 sec) 
Heartbeat CPU  0 instructions:   22000002 cycles:   15333143 heartbeat IPC: 1.42445 cumulative IPC: 1.43480 (Simulation time: 0 hr 0 min 43 sec) 
Heartbeat CPU  0 instructions:   23000001 cycles:   16035270 heartbeat IPC: 1.42424 cumulative IPC: 1.43434 (Simulation time: 0 hr 0 min 45 sec) 
Heartbeat CPU  0 instructions:   24000000 cycles:   16737130 heartbeat IPC: 1.42478 cumulative IPC: 1.43394 (Simulation time: 0 hr 0 min 47 sec) 
Heartbeat CPU  0 instructions:   25000001 cycles:   17439236 heartbeat IPC: 1.42429 cumulative IPC: 1.43355 (Simulation time: 0 hr 0 min 49 sec) 
Heartbeat CPU  0 instructions:   26000003 cycles:   18141557 heartbeat IPC: 1.42385 cumulative IPC: 1.43317 (Simulation time: 0 hr 0 min 51 sec) 
Heartbeat CPU  0 instructions:   27000003 cycles:   18843519 heartbeat IPC: 1.42458 cumulative IPC: 1.43285 (Simulation time: 0 hr 0 min 52 sec) 
Heartbeat CPU  0 instructions:   28000000 cycles:   19545450 heartbeat IPC: 1.42464 cumulative IPC: 1.43256 (Simulation time: 0 hr 0 min 54 sec) 
Heartbeat CPU  0 instructions:   29000000 cycles:   20247634 heartbeat IPC: 1.42413 cumulative IPC: 1.43227 (Simulation time: 0 hr 0 min 56 sec) 
Heartbeat CPU  0 instructions:   30000003 cycles:   20949771 heartbeat IPC: 1.42423 cumulative IPC: 1.43200 (Simulation time: 0 hr 0 min 58 sec) 
Heartbeat CPU  0 instructions:   31000003 cycles:   21651462 heartbeat IPC: 1.42513 cumulative IPC: 1.43177 (Simulation time: 0 hr 1 min 0 sec) 
Heartbeat CPU  0 instructions:   32000000 cycles:   22353331 heartbeat IPC: 1.42476 cumulative IPC: 1.43155 (Simulation time: 0 hr 1 min 2 sec) 
Heartbeat CPU  0 instructions:   33000001 cycles:   23055805 heartbeat IPC: 1.42354 cumulative IPC: 1.43131 (Simulation time: 0 hr 1 min 4 sec) 
Heartbeat CPU  0 instructions:   34000000 cycles:   23757775 heartbeat IPC: 1.42456 cumulative IPC: 1.43111 (Simulation time: 0 hr 1 min 7 sec) 
Heartbeat CPU  0 instructions:   35000001 cycles:   24459664 heartbeat IPC: 1.42473 cumulative IPC: 1.43093 (Simulation time: 0 hr 1 min 9 sec) 
Heartbeat CPU  0 instructions:   36000000 cycles:   25161635 heartbeat IPC: 1.42456 cumulative IPC: 1.43075 (Simulation time: 0 hr 1 min 11 sec) 
Heartbeat CPU  0 instructions:   37000000 cycles:   25863982 heartbeat IPC: 1.42380 cumulative IPC: 1.43056 (Simulation time: 0 hr 1 min 13 sec) 
Heartbeat CPU  0 instructions:   38000001 cycles:   26565958 heartbeat IPC: 1.42455 cumulative IPC: 1.43040 (Simulation time: 0 hr 1 min 15 sec) 
Heartbeat CPU  0 instructions:   39000000 cycles:   27267881 heartbeat IPC: 1.42466 cumulative IPC: 1.43025 (Simulation time: 0 hr 1 min 16 sec) 
Heartbeat CPU  0 instructions:   40000000 cycles:   27969866 heartbeat IPC: 1.42453 cumulative IPC: 1.43011 (Simulation time: 0 hr 1 min 18 sec) 
Heartbeat CPU  0 instructions:   41000000 cycles:   28570906 heartbeat IPC: 1.66378 cumulative IPC: 1.43503 (Simulation time: 0 hr 1 min 20 sec) 
Heartbeat CPU  0 instructions:   42000002 cycles:   29261569 heartbeat IPC: 1.44789 cumulative IPC: 1.43533 (Simulation time: 0 hr 1 min 22 sec) 
Heartbeat CPU  0 instructions:   43000002 cycles:   29963736 heartbeat IPC: 1.42416 cumulative IPC: 1.43507 (Simulation time: 0 hr 1 min 24 sec) 
Heartbeat CPU  0 instructions:   44000000 cycles:   30665851 heartbeat IPC: 1.42427 cumulative IPC: 1.43482 (Simulation time: 0 hr 1 min 26 sec) 
Heartbeat CPU  0 instructions:   45000003 cycles:   31367847 heartbeat IPC: 1.42451 cumulative IPC: 1.43459 (Simulation time: 0 hr 1 min 28 sec) 
Heartbeat CPU  0 instructions:   46000003 cycles:   32069772 heartbeat IPC: 1.42465 cumulative IPC: 1.43437 (Simulation time: 0 hr 1 min 30 sec) 
Heartbeat CPU  0 instructions:   47000000 cycles:   32771728 heartbeat IPC: 1.42459 cumulative IPC: 1.43416 (Simulation time: 0 hr 1 min 32 sec) 
Heartbeat CPU  0 instructions:   48000000 cycles:   33474062 heartbeat IPC: 1.42382 cumulative IPC: 1.43395 (Simulation time: 0 hr 1 min 34 sec) 
Heartbeat CPU  0 instructions:   49000000 cycles:   34175798 heartbeat IPC: 1.42504 cumulative IPC: 1.43376 (Simulation time: 0 hr 1 min 36 sec) 
Heartbeat CPU  0 instructions:   50000000 cycles:   34877881 heartbeat IPC: 1.42433 cumulative IPC: 1.43357 (Simulation time: 0 hr 1 min 38 sec) 
Heartbeat CPU  0 instructions:   51000000 cycles:   35580155 heartbeat IPC: 1.42395 cumulative IPC: 1.43338 (Simulation time: 0 hr 1 min 39 sec) 
Heartbeat CPU  0 instructions:   52000000 cycles:   36282035 heartbeat IPC: 1.42474 cumulative IPC: 1.43322 (Simulation time: 0 hr 1 min 41 sec) 
Heartbeat CPU  0 instructions:   53000000 cycles:   36984162 heartbeat IPC: 1.42424 cumulative IPC: 1.43305 (Simulation time: 0 hr 1 min 43 sec) 
Heartbeat CPU  0 instructions:   54000001 cycles:   37685999 heartbeat IPC: 1.42483 cumulative IPC: 1.43289 (Simulation time: 0 hr 1 min 45 sec) 
Heartbeat CPU  0 instructions:   55000001 cycles:   38388004 heartbeat IPC: 1.42449 cumulative IPC: 1.43274 (Simulation time: 0 hr 1 min 47 sec) 
Heartbeat CPU  0 instructions:   56000000 cycles:   39090211 heartbeat IPC: 1.42408 cumulative IPC: 1.43258 (Simulation time: 0 hr 1 min 49 sec) 
Heartbeat CPU  0 instructions:   57000000 cycles:   39792436 heartbeat IPC: 1.42404 cumulative IPC: 1.43243 (Simulation time: 0 hr 1 min 51 sec) 
Heartbeat CPU  0 instructions:   58000003 cycles:   40494446 heartbeat IPC: 1.42449 cumulative IPC: 1.43230 (Simulation time: 0 hr 1 min 53 sec) 
Heartbeat CPU  0 instructions:   59000000 cycles:   41196334 heartbeat IPC: 1.42472 cumulative IPC: 1.43217 (Simulation time: 0 hr 1 min 55 sec) 
Heartbeat CPU  0 instructions:   60000000 cycles:   41898537 heartbeat IPC: 1.42409 cumulative IPC: 1.43203 (Simulation time: 0 hr 1 min 57 sec) 
Heartbeat CPU  0 instructions:   61000000 cycles:   42600475 heartbeat IPC: 1.42463 cumulative IPC: 1.43191 (Simulation time: 0 hr 1 min 58 sec) 
Heartbeat CPU  0 instructions:   62000002 cycles:   43302402 heartbeat IPC: 1.42465 cumulative IPC: 1.43179 (Simulation time: 0 hr 2 min 0 sec) 
Heartbeat CPU  0 instructions:   63000000 cycles:   43947200 heartbeat IPC: 1.55087 cumulative IPC: 1.43354 (Simulation time: 0 hr 2 min 2 sec) 
Heartbeat CPU  0 instructions:   64000000 cycles:   44595913 heartbeat IPC: 1.54151 cumulative IPC: 1.43511 (Simulation time: 0 hr 2 min 4 sec) 
Heartbeat CPU  0 instructions:   65000000 cycles:   45297799 heartbeat IPC: 1.42473 cumulative IPC: 1.43495 (Simulation time: 0 hr 2 min 6 sec) 
Heartbeat CPU  0 instructions:   66000001 cycles:   45999586 heartbeat IPC: 1.42494 cumulative IPC: 1.43480 (Simulation time: 0 hr 2 min 8 sec) 
Heartbeat CPU  0 instructions:   67000002 cycles:   46701455 heartbeat IPC: 1.42477 cumulative IPC: 1.43464 (Simulation time: 0 hr 2 min 10 sec) 
Heartbeat CPU  0 instructions:   68000000 cycles:   47403609 heartbeat IPC: 1.42419 cumulative IPC: 1.43449 (Simulation time: 0 hr 2 min 12 sec) 
Heartbeat CPU  0 instructions:   69000000 cycles:   48105615 heartbeat IPC: 1.42449 cumulative IPC: 1.43434 (Simulation time: 0 hr 2 min 14 sec) 
Heartbeat CPU  0 instructions:   70000002 cycles:   48807512 heartbeat IPC: 1.42471 cumulative IPC: 1.43421 (Simulation time: 0 hr 2 min 16 sec) 
Heartbeat CPU  0 instructions:   71000003 cycles:   49509879 heartbeat IPC: 1.42376 cumulative IPC: 1.43406 (Simulation time: 0 hr 2 min 18 sec) 
Heartbeat CPU  0 instructions:   72000000 cycles:   50211720 heartbeat IPC: 1.42482 cumulative IPC: 1.43393 (Simulation time: 0 hr 2 min 19 sec) 
Heartbeat CPU  0 instructions:   73000001 cycles:   50913606 heartbeat IPC: 1.42473 cumulative IPC: 1.43380 (Simulation time: 0 hr 2 min 21 sec) 
Heartbeat CPU  0 instructions:   74000003 cycles:   51615689 heartbeat IPC: 1.42434 cumulative IPC: 1.43367 (Simulation time: 0 hr 2 min 23 sec) 
Heartbeat CPU  0 instructions:   75000002 cycles:   52318106 heartbeat IPC: 1.42365 cumulative IPC: 1.43354 (Simulation time: 0 hr 2 min 25 sec) 
Heartbeat CPU  0 instructions:   76000000 cycles:   53020040 heartbeat IPC: 1.42463 cumulative IPC: 1.43342 (Simulation time: 0 hr 2 min 27 sec) 
Heartbeat CPU  0 instructions:   77000003 cycles:   53722422 heartbeat IPC: 1.42373 cumulative IPC: 1.43329 (Simulation time: 0 hr 2 min 29 sec) 
Heartbeat CPU  0 instructions:   78000001 cycles:   54424740 heartbeat IPC: 1.42385 cumulative IPC: 1.43317 (Simulation time: 0 hr 2 min 31 sec) 
Heartbeat CPU  0 instructions:   79000001 cycles:   55126412 heartbeat IPC: 1.42517 cumulative IPC: 1.43307 (Simulation time: 0 hr 2 min 33 sec) 
Heartbeat CPU  0 instructions:   80000000 cycles:   55828223 heartbeat IPC: 1.42488 cumulative IPC: 1.43297 (Simulation time: 0 hr 2 min 35 sec) 
Heartbeat CPU  0 instructions:   81000002 cycles:   56530345 heartbeat IPC: 1.42426 cumulative IPC: 1.43286 (Simulation time: 0 hr 2 min 37 sec) 
Heartbeat CPU  0 instructions:   82000003 cycles:   57232334 heartbeat IPC: 1.42453 cumulative IPC: 1.43276 (Simulation time: 0 hr 2 min 39 sec) 
Heartbeat CPU  0 instructions:   83000001 cycles:   57934386 heartbeat IPC: 1.42439 cumulative IPC: 1.43266 (Simulation time: 0 hr 2 min 41 sec) 
Heartbeat CPU  0 instructions:   84000000 cycles:   58636364 heartbeat IPC: 1.42454 cumulative IPC: 1.43256 (Simulation time: 0 hr 2 min 43 sec) 
Heartbeat CPU  0 instructions:   85000000 cycles:   59324235 heartbeat IPC: 1.45376 cumulative IPC: 1.43280 (Simulation time: 0 hr 2 min 45 sec) 
Heartbeat CPU  0 instructions:   86000002 cycles:   59929127 heartbeat IPC: 1.65319 cumulative IPC: 1.43503 (Simulation time: 0 hr 2 min 47 sec) 
Heartbeat CPU  0 instructions:   87000002 cycles:   60631373 heartbeat IPC: 1.42400 cumulative IPC: 1.43490 (Simulation time: 0 hr 2 min 49 sec) 
Heartbeat CPU  0 instructions:   88000000 cycles:   61333689 heartbeat IPC: 1.42386 cumulative IPC: 1.43477 (Simulation time: 0 hr 2 min 51 sec) 
Heartbeat CPU  0 instructions:   89000001 cycles:   62035487 heartbeat IPC: 1.42491 cumulative IPC: 1.43466 (Simulation time: 0 hr 2 min 53 sec) 
Heartbeat CPU  0 instructions:   90000003 cycles:   62737584 heartbeat IPC: 1.42431 cumulative IPC: 1.43455 (Simulation time: 0 hr 2 min 55 sec) 
Heartbeat CPU  0 instructions:   91000003 cycles:   63439728 heartbeat IPC: 1.42421 cumulative IPC: 1.43443 (Simulation time: 0 hr 2 min 56 sec) 
Heartbeat CPU  0 instructions:   92000000 cycles:   64141668 heartbeat IPC: 1.42462 cumulative IPC: 1.43432 (Simulation time: 0 hr 2 min 58 sec) 
Heartbeat CPU  0 instructions:   93000002 cycles:   64843704 heartbeat IPC: 1.42443 cumulative IPC: 1.43422 (Simulation time: 0 hr 3 min 0 sec) 
Heartbeat CPU  0 instructions:   94000002 cycles:   65545500 heartbeat IPC: 1.42492 cumulative IPC: 1.43412 (Simulation time: 0 hr 3 min 2 sec) 
Heartbeat CPU  0 instructions:   95000003 cycles:   66247421 heartbeat IPC: 1.42466 cumulative IPC: 1.43402 (Simulation time: 0 hr 3 min 4 sec) 
Heartbeat CPU  0 instructions:   96000000 cycles:   66949494 heartbeat IPC: 1.42435 cumulative IPC: 1.43392 (Simulation time: 0 hr 3 min 6 sec) 
Heartbeat CPU  0 instructions:   97000000 cycles:   67651575 heartbeat IPC: 1.42434 cumulative IPC: 1.43382 (Simulation time: 0 hr 3 min 8 sec) 
Heartbeat CPU  0 instructions:   98000002 cycles:   68353484 heartbeat IPC: 1.42469 cumulative IPC: 1.43372 (Simulation time: 0 hr 3 min 10 sec) 
Heartbeat CPU  0 instructions:   99000003 cycles:   69055451 heartbeat IPC: 1.42457 cumulative IPC: 1.43363 (Simulation time: 0 hr 3 min 12 sec) 
Heartbeat CPU  0 instructions:  100000000 cycles:   69757608 heartbeat IPC: 1.42418 cumulative IPC: 1.43354 (Simulation time: 0 hr 3 min 14 sec) 

Warmup complete CPU  0 instructions:  100000001 cycles:   69757628 (Simulation time: 0 hr 3 min 14 sec) 

Heartbeat CPU  0 instructions:  101000000 cycles:   71659633 heartbeat IPC: 0.52576 cumulative IPC: 0.52576 (Simulation time: 0 hr 3 min 16 sec) 
Heartbeat CPU  0 instructions:  102000003 cycles:   73392366 heartbeat IPC: 0.57712 cumulative IPC: 0.55025 (Simulation time: 0 hr 3 min 18 sec) 
Heartbeat CPU  0 instructions:  103000003 cycles:   75235617 heartbeat IPC: 0.54252 cumulative IPC: 0.54765 (Simulation time: 0 hr 3 min 20 sec) 
Heartbeat CPU  0 instructions:  104000000 cycles:   77126117 heartbeat IPC: 0.52896 cumulative IPC: 0.54285 (Simulation time: 0 hr 3 min 23 sec) 
Heartbeat CPU  0 instructions:  105000002 cycles:   78939052 heartbeat IPC: 0.55159 cumulative IPC: 0.54458 (Simulation time: 0 hr 3 min 25 sec) 
Heartbeat CPU  0 instructions:  106000000 cycles:   80711481 heartbeat IPC: 0.56420 cumulative IPC: 0.54775 (Simulation time: 0 hr 3 min 27 sec) 
Heartbeat CPU  0 instructions:  107000003 cycles:   82599020 heartbeat IPC: 0.52979 cumulative IPC: 0.54511 (Simulation time: 0 hr 3 min 29 sec) 
Heartbeat CPU  0 instructions:  108000000 cycles:   93317552 heartbeat IPC: 0.09330 cumulative IPC: 0.33956 (Simulation time: 0 hr 3 min 31 sec) 
Heartbeat CPU  0 instructions:  109000003 cycles:  100058086 heartbeat IPC: 0.14836 cumulative IPC: 0.29703 (Simulation time: 0 hr 3 min 34 sec) 
Heartbeat CPU  0 instructions:  110000001 cycles:  101945288 heartbeat IPC: 0.52988 cumulative IPC: 0.31068 (Simulation time: 0 hr 3 min 36 sec) 
Heartbeat CPU  0 instructions:  111000000 cycles:  103840234 heartbeat IPC: 0.52772 cumulative IPC: 0.32275 (Simulation time: 0 hr 3 min 38 sec) 
Heartbeat CPU  0 instructions:  112000000 cycles:  105585141 heartbeat IPC: 0.57310 cumulative IPC: 0.33494 (Simulation time: 0 hr 3 min 40 sec) 
Heartbeat CPU  0 instructions:  113000000 cycles:  107430813 heartbeat IPC: 0.54181 cumulative IPC: 0.34507 (Simulation time: 0 hr 3 min 42 sec) 
Heartbeat CPU  0 instructions:  114000000 cycles:  109335041 heartbeat IPC: 0.52515 cumulative IPC: 0.35374 (Simulation time: 0 hr 3 min 45 sec) 
Heartbeat CPU  0 instructions:  115000001 cycles:  111146984 heartbeat IPC: 0.55189 cumulative IPC: 0.36241 (Simulation time: 0 hr 3 min 47 sec) 
Heartbeat CPU  0 instructions:  116000000 cycles:  112919305 heartbeat IPC: 0.56423 cumulative IPC: 0.37070 (Simulation time: 0 hr 3 min 49 sec) 
Heartbeat CPU  0 instructions:  117000003 cycles:  114813733 heartbeat IPC: 0.52787 cumulative IPC: 0.37731 (Simulation time: 0 hr 3 min 51 sec) 
Heartbeat CPU  0 instructions:  118000002 cycles:  116693513 heartbeat IPC: 0.53198 cumulative IPC: 0.38350 (Simulation time: 0 hr 3 min 53 sec) 
Heartbeat CPU  0 instructions:  119000002 cycles:  118415914 heartbeat IPC: 0.58058 cumulative IPC: 0.39048 (Simulation time: 0 hr 3 min 55 sec) 
Heartbeat CPU  0 instructions:  120000000 cycles:  120296307 heartbeat IPC: 0.53180 cumulative IPC: 0.39574 (Simulation time: 0 hr 3 min 57 sec) 
Heartbeat CPU  0 instructions:  121000003 cycles:  122188219 heartbeat IPC: 0.52857 cumulative IPC: 0.40053 (Simulation time: 0 hr 4 min 0 sec) 
Heartbeat CPU  0 instructions:  122000003 cycles:  123943828 heartbeat IPC: 0.56960 cumulative IPC: 0.40601 (Simulation time: 0 hr 4 min 2 sec) 
Heartbeat CPU  0 instructions:  123000002 cycles:  125772413 heartbeat IPC: 0.54687 cumulative IPC: 0.41061 (Simulation time: 0 hr 4 min 4 sec) 
Heartbeat CPU  0 instructions:  124000000 cycles:  127668584 heartbeat IPC: 0.52738 cumulative IPC: 0.41443 (Simulation time: 0 hr 4 min 6 sec) 
Heartbeat CPU  0 instructions:  125000000 cycles:  129502422 heartbeat IPC: 0.54530 cumulative IPC: 0.41845 (Simulation time: 0 hr 4 min 8 sec) 
Heartbeat CPU  0 instructions:  126000002 cycles:  131270522 heartbeat IPC: 0.56558 cumulative IPC: 0.42268 (Simulation time: 0 hr 4 min 11 sec) 
Heartbeat CPU  0 instructions:  127000002 cycles:  133283394 heartbeat IPC: 0.49680 cumulative IPC: 0.42502 (Simulation time: 0 hr 4 min 13 sec) 
Heartbeat CPU  0 instructions:  128000000 cycles:  135167435 heartbeat IPC: 0.53077 cumulative IPC: 0.42807 (Simulation time: 0 hr 4 min 15 sec) 
Heartbeat CPU  0 instructions:  129000001 cycles:  136886183 heartbeat IPC: 0.58182 cumulative IPC: 0.43201 (Simulation time: 0 hr 4 min 17 sec) 
Heartbeat CPU  0 instructions:  130000000 cycles:  142387169 heartbeat IPC: 0.18179 cumulative IPC: 0.41306 (Simulation time: 0 hr 4 min 19 sec) 
Heartbeat CPU  0 instructions:  131000003 cycles:  154490505 heartbeat IPC: 0.08262 cumulative IPC: 0.36586 (Simulation time: 0 hr 4 min 22 sec) 
Heartbeat CPU  0 instructions:  132000000 cycles:  156250410 heartbeat IPC: 0.56821 cumulative IPC: 0.36997 (Simulation time: 0 hr 4 min 24 sec) 
Heartbeat CPU  0 instructions:  133000000 cycles:  158082784 heartbeat IPC: 0.54574 cumulative IPC: 0.37362 (Simulation time: 0 hr 4 min 26 sec) 
Heartbeat CPU  0 instructions:  134000000 cycles:  159980331 heartbeat IPC: 0.52700 cumulative IPC: 0.37685 (Simulation time: 0 hr 4 min 28 sec) 
Heartbeat CPU  0 instructions:  135000000 cycles:  161813296 heartbeat IPC: 0.54556 cumulative IPC: 0.38020 (Simulation time: 0 hr 4 min 30 sec) 
Heartbeat CPU  0 instructions:  136000000 cycles:  163570342 heartbeat IPC: 0.56914 cumulative IPC: 0.38374 (Simulation time: 0 hr 4 min 33 sec) 
Heartbeat CPU  0 instructions:  137000002 cycles:  165466055 heartbeat IPC: 0.52751 cumulative IPC: 0.38659 (Simulation time: 0 hr 4 min 35 sec) 
Heartbeat CPU  0 instructions:  138000001 cycles:  167352339 heartbeat IPC: 0.53014 cumulative IPC: 0.38937 (Simulation time: 0 hr 4 min 37 sec) 
Heartbeat CPU  0 instructions:  139000001 cycles:  169071691 heartbeat IPC: 0.58161 cumulative IPC: 0.39269 (Simulation time: 0 hr 4 min 39 sec) 
Heartbeat CPU  0 instructions:  140000000 cycles:  170955074 heartbeat IPC: 0.53096 cumulative IPC: 0.39527 (Simulation time: 0 hr 4 min 41 sec) 
Heartbeat CPU  0 instructions:  141000000 cycles:  172850590 heartbeat IPC: 0.52756 cumulative IPC: 0.39770 (Simulation time: 0 hr 4 min 43 sec) 
Heartbeat CPU  0 instructions:  142000001 cycles:  174623011 heartbeat IPC: 0.56420 cumulative IPC: 0.40051 (Simulation time: 0 hr 4 min 46 sec) 
Heartbeat CPU  0 instructions:  143000001 cycles:  176436072 heartbeat IPC: 0.55155 cumulative IPC: 0.40308 (Simulation time: 0 hr 4 min 48 sec) 
Heartbeat CPU  0 instructions:  144000000 cycles:  178332396 heartbeat IPC: 0.52734 cumulative IPC: 0.40525 (Simulation time: 0 hr 4 min 50 sec) 
Heartbeat CPU  0 instructions:  145000000 cycles:  180183995 heartbeat IPC: 0.54007 cumulative IPC: 0.40751 (Simulation time: 0 hr 4 min 52 sec) 
Heartbeat CPU  0 instructions:  146000002 cycles:  181926407 heartbeat IPC: 0.57392 cumulative IPC: 0.41010 (Simulation time: 0 hr 4 min 54 sec) 
Heartbeat CPU  0 instructions:  147000003 cycles:  183817790 heartbeat IPC: 0.52871 cumulative IPC: 0.41206 (Simulation time: 0 hr 4 min 56 sec) 
Heartbeat CPU  0 instructions:  148000000 cycles:  185704905 heartbeat IPC: 0.52991 cumulative IPC: 0.41398 (Simulation time: 0 hr 4 min 58 sec) 
Heartbeat CPU  0 instructions:  149000002 cycles:  187431601 heartbeat IPC: 0.57914 cumulative IPC: 0.41640 (Simulation time: 0 hr 5 min 1 sec) 
Heartbeat CPU  0 instructions:  150000003 cycles:  189302526 heartbeat IPC: 0.53450 cumulative IPC: 0.41825 (Simulation time: 0 hr 5 min 3 sec) 
Heartbeat CPU  0 instructions:  151000003 cycles:  191192758 heartbeat IPC: 0.52904 cumulative IPC: 0.41998 (Simulation time: 0 hr 5 min 5 sec) 
Heartbeat CPU  0 instructions:  152000000 cycles:  192995462 heartbeat IPC: 0.55472 cumulative IPC: 0.42195 (Simulation time: 0 hr 5 min 7 sec) 
Heartbeat CPU  0 instructions:  153000003 cycles:  205798800 heartbeat IPC: 0.07810 cumulative IPC: 0.38959 (Simulation time: 0 hr 5 min 10 sec) 
Heartbeat CPU  0 instructions:  154000000 cycles:  210718699 heartbeat IPC: 0.20326 cumulative IPC: 0.38308 (Simulation time: 0 hr 5 min 12 sec) 
Heartbeat CPU  0 instructions:  155000000 cycles:  212571033 heartbeat IPC: 0.53986 cumulative IPC: 0.38512 (Simulation time: 0 hr 5 min 14 sec) 
Heartbeat CPU  0 instructions:  156000000 cycles:  214310577 heartbeat IPC: 0.57486 cumulative IPC: 0.38740 (Simulation time: 0 hr 5 min 16 sec) 
Heartbeat CPU  0 instructions:  157000001 cycles:  216203352 heartbeat IPC: 0.52833 cumulative IPC: 0.38922 (Simulation time: 0 hr 5 min 18 sec) 
Heartbeat CPU  0 instructions:  158000001 cycles:  218091962 heartbeat IPC: 0.52949 cumulative IPC: 0.39101 (Simulation time: 0 hr 5 min 21 sec) 
Heartbeat CPU  0 instructions:  159000000 cycles:  219816984 heartbeat IPC: 0.57970 cumulative IPC: 0.39318 (Simulation time: 0 hr 5 min 23 sec) 
Heartbeat CPU  0 instructions:  160000000 cycles:  221690333 heartbeat IPC: 0.53380 cumulative IPC: 0.39491 (Simulation time: 0 hr 5 min 25 sec) 
Heartbeat CPU  0 instructions:  161000003 cycles:  223587590 heartbeat IPC: 0.52708 cumulative IPC: 0.39654 (Simulation time: 0 hr 5 min 27 sec) 
Heartbeat CPU  0 instructions:  162000000 cycles:  225377158 heartbeat IPC: 0.55879 cumulative IPC: 0.39841 (Simulation time: 0 hr 5 min 29 sec) 
Heartbeat CPU  0 instructions:  163000003 cycles:  227174372 heartbeat IPC: 0.55642 cumulative IPC: 0.40021 (Simulation time: 0 hr 5 min 31 sec) 
Heartbeat CPU  0 instructions:  164000000 cycles:  229066609 heartbeat IPC: 0.52847 cumulative IPC: 0.40174 (Simulation time: 0 hr 5 min 33 sec) 
Heartbeat CPU  0 instructions:  165000000 cycles:  230942484 heartbeat IPC: 0.53308 cumulative IPC: 0.40326 (Simulation time: 0 hr 5 min 36 sec) 
Heartbeat CPU  0 instructions:  166000001 cycles:  232664679 heartbeat IPC: 0.58065 cumulative IPC: 0.40514 (Simulation time: 0 hr 5 min 38 sec) 
Heartbeat CPU  0 instructions:  167000000 cycles:  234553385 heartbeat IPC: 0.52946 cumulative IPC: 0.40656 (Simulation time: 0 hr 5 min 40 sec) 
Heartbeat CPU  0 instructions:  168000000 cycles:  236444912 heartbeat IPC: 0.52867 cumulative IPC: 0.40795 (Simulation time: 0 hr 5 min 42 sec) 
Heartbeat CPU  0 instructions:  169000001 cycles:  238179664 heartbeat IPC: 0.57645 cumulative IPC: 0.40969 (Simulation time: 0 hr 5 min 44 sec) 
Heartbeat CPU  0 instructions:  170000002 cycles:  240034638 heartbeat IPC: 0.53909 cumulative IPC: 0.41109 (Simulation time: 0 hr 5 min 46 sec) 
Heartbeat CPU  0 instructions:  171000001 cycles:  241932207 heartbeat IPC: 0.52699 cumulative IPC: 0.41237 (Simulation time: 0 hr 5 min 49 sec) 
Heartbeat CPU  0 instructions:  172000000 cycles:  243742165 heartbeat IPC: 0.55250 cumulative IPC: 0.41383 (Simulation time: 0 hr 5 min 51 sec) 
Heartbeat CPU  0 instructions:  173000000 cycles:  245522126 heartbeat IPC: 0.56181 cumulative IPC: 0.41533 (Simulation time: 0 hr 5 min 53 sec) 
Heartbeat CPU  0 instructions:  174000003 cycles:  247417430 heartbeat IPC: 0.52762 cumulative IPC: 0.41653 (Simulation time: 0 hr 5 min 55 sec) 
Heartbeat CPU  0 instructions:  175000000 cycles:  254584584 heartbeat IPC: 0.13952 cumulative IPC: 0.40578 (Simulation time: 0 hr 5 min 57 sec) 
Heartbeat CPU  0 instructions:  176000000 cycles:  264844414 heartbeat IPC: 0.09747 cumulative IPC: 0.38957 (Simulation time: 0 hr 6 min 0 sec) 
Heartbeat CPU  0 instructions:  177000001 cycles:  266806737 heartbeat IPC: 0.50960 cumulative IPC: 0.39077 (Simulation time: 0 hr 6 min 2 sec) 
Heartbeat CPU  0 instructions:  178000003 cycles:  268852173 heartbeat IPC: 0.48889 cumulative IPC: 0.39177 (Simulation time: 0 hr 6 min 4 sec) 
Heartbeat CPU  0 instructions:  179000002 cycles:  270755462 heartbeat IPC: 0.52541 cumulative IPC: 0.39304 (Simulation time: 0 hr 6 min 6 sec) 
Heartbeat CPU  0 instructions:  180000000 cycles:  272638197 heartbeat IPC: 0.53114 cumulative IPC: 0.39432 (Simulation time: 0 hr 6 min 8 sec) 
Heartbeat CPU  0 instructions:  181000003 cycles:  274548443 heartbeat IPC: 0.52349 cumulative IPC: 0.39553 (Simulation time: 0 hr 6 min 11 sec) 
Heartbeat CPU  0 instructions:  182000003 cycles:  276376068 heartbeat IPC: 0.54716 cumulative IPC: 0.39687 (Simulation time: 0 hr 6 min 13 sec) 
Heartbeat CPU  0 instructions:  183000000 cycles:  278184238 heartbeat IPC: 0.55304 cumulative IPC: 0.39822 (Simulation time: 0 hr 6 min 15 sec) 
Heartbeat CPU  0 instructions:  184000000 cycles:  280092091 heartbeat IPC: 0.52415 cumulative IPC: 0.39936 (Simulation time: 0 hr 6 min 17 sec) 
Heartbeat CPU  0 instructions:  185000002 cycles:  281990369 heartbeat IPC: 0.52679 cumulative IPC: 0.40050 (Simulation time: 0 hr 6 min 19 sec) 
Heartbeat CPU  0 instructions:  186000001 cycles:  283748254 heartbeat IPC: 0.56886 cumulative IPC: 0.40189 (Simulation time: 0 hr 6 min 22 sec) 
Heartbeat CPU  0 instructions:  187000000 cycles:  285644374 heartbeat IPC: 0.52739 cumulative IPC: 0.40299 (Simulation time: 0 hr 6 min 24 sec) 
Heartbeat CPU  0 instructions:  188000000 cycles:  287553629 heartbeat IPC: 0.52376 cumulative IPC: 0.40405 (Simulation time: 0 hr 6 min 26 sec) 
Heartbeat CPU  0 instructions:  189000000 cycles:  289322609 heartbeat IPC: 0.56530 cumulative IPC: 0.40535 (Simulation time: 0 hr 6 min 28 sec) 
Heartbeat CPU  0 instructions:  190000000 cycles:  291188055 heartbeat IPC: 0.53606 cumulative IPC: 0.40645 (Simulation time: 0 hr 6 min 31 sec) 
Heartbeat CPU  0 instructions:  191000000 cycles:  293098742 heartbeat IPC: 0.52337 cumulative IPC: 0.40745 (Simulation time: 0 hr 6 min 33 sec) 
Heartbeat CPU  0 instructions:  192000000 cycles:  294940023 heartbeat IPC: 0.54310 cumulative IPC: 0.40856 (Simulation time: 0 hr 6 min 35 sec) 
Heartbeat CPU  0 instructions:  193000001 cycles:  296734272 heartbeat IPC: 0.55734 cumulative IPC: 0.40973 (Simulation time: 0 hr 6 min 37 sec) 
Heartbeat CPU  0 instructions:  194000000 cycles:  298644361 heartbeat IPC: 0.52354 cumulative IPC: 0.41068 (Simulation time: 0 hr 6 min 40 sec) 
Heartbeat CPU  0 instructions:  195000002 cycles:  300542022 heartbeat IPC: 0.52697 cumulative IPC: 0.41164 (Simulation time: 0 hr 6 min 42 sec) 
Heartbeat CPU  0 instructions:  196000000 cycles:  302294676 heartbeat IPC: 0.57056 cumulative IPC: 0.41284 (Simulation time: 0 hr 6 min 44 sec) 
Heartbeat CPU  0 instructions:  197000000 cycles:  304301753 heartbeat IPC: 0.49824 cumulative IPC: 0.41357 (Simulation time: 0 hr 6 min 46 sec) 
Heartbeat CPU  0 instructions:  198000003 cycles:  318614737 heartbeat IPC: 0.06987 cumulative IPC: 0.39380 (Simulation time: 0 hr 6 min 49 sec) 
Heartbeat CPU  0 instructions:  199000001 cycles:  321713120 heartbeat IPC: 0.32275 cumulative IPC: 0.39293 (Simulation time: 0 hr 6 min 52 sec) 
Heartbeat CPU  0 instructions:  200000000 cycles:  323584028 heartbeat IPC: 0.53450 cumulative IPC: 0.39397 (Simulation time: 0 hr 6 min 54 sec) 
Finished CPU 0 instructions: 100000000 cycles: 253826428 cumulative IPC: 0.39397 (Simulation time: 0 hr 6 min 54 sec) 

ChampSim completed all CPUs

[ROI Statistics]
Core_0_instructions 100000000
Core_0_cycles 253826428
Core_0_IPC 0.39397

Core_0_branch_prediction_accuracy 99.16976
Core_0_branch_MPKI 0.01138
Core_0_average_ROB_occupancy_at_mispredict 253.39192

Core_0_L1D_total_access 83744501
Core_0_L1D_total_hit 82899531
Core_0_L1D_total_miss 844970
Core_0_L1D_loads 34101080
Core_0_L1D_load_hit 34070412
Core_0_L1D_load_miss 30668
Core_0_L1D_RFOs 16689084
Core_0_L1D_RFO_hit 16524558
Core_0_L1D_RFO_miss 164526
Core_0_L1D_prefetches 32954337
Core_0_L1D_prefetch_hit 32304561
Core_0_L1D_prefetch_miss 649776
Core_0_L1D_writebacks 0
Core_0_L1D_writeback_hit 0
Core_0_L1D_writeback_miss 0
Core_0_L1D_prefetch_requested 81149226
Core_0_L1D_prefetch_issued 78620392
Core_0_L1D_prefetch_useful 1250308
Core_0_L1D_prefetch_useless 38063
Core_0_L1D_prefetch_late 1684
Core_0_L1D_average_miss_latency 406862.60634

Core_0_L1I_total_access 26512804
Core_0_L1I_total_hit 26512804
Core_0_L1I_total_miss 0
Core_0_L1I_loads 26512804
Core_0_L1I_load_hit 26512804
Core_0_L1I_load_miss 0
Core_0_L1I_RFOs 0
Core_0_L1I_RFO_hit 0
Core_0_L1I_RFO_miss 0
Core_0_L1I_prefetches 0
Core_0_L1I_prefetch_hit 0
Core_0_L1I_prefetch_miss 0
Core_0_L1I_writebacks 0
Core_0_L1I_writeback_hit 0
Core_0_L1I_writeback_miss 0
Core_0_L1I_prefetch_requested 0
Core_0_L1I_prefetch_issued 0
Core_0_L1I_prefetch_useful 0
Core_0_L1I_prefetch_useless 0
Core_0_L1I_prefetch_late 0
Core_0_L1I_average_miss_latency -nan

Core_0_L2C_total_access 1664014
Core_0_L2C_total_hit 1120765
Core_0_L2C_total_miss 543249
Core_0_L2C_loads 29024
Core_0_L2C_load_hit 22680
Core_0_L2C_load_miss 6344
Core_0_L2C_RFOs 164433
Core_0_L2C_RFO_hit 342
Core_0_L2C_RFO_miss 164091
Core_0_L2C_prefetches 1300210
Core_0_L2C_prefetch_hit 927577
Core_0_L2C_prefetch_miss 372633
Core_0_L2C_writebacks 170347
Core_0_L2C_writeback_hit 170166
Core_0_L2C_writeback_miss 181
Core_0_L2C_prefetch_requested 1349451
Core_0_L2C_prefetch_issued 1322179
Core_0_L2C_prefetch_useful 14600
Core_0_L2C_prefetch_useless 704663
Core_0_L2C_prefetch_late 47
Core_0_L2C_average_miss_latency 268.69158

Core_0_LLC_total_access 706914
Core_0_LLC_total_hit 142436
Core_0_LLC_total_miss 564478
Core_0_LLC_loads 6343
Core_0_LLC_load_hit 1522
Core_0_LLC_load_miss 4821
Core_0_LLC_RFOs 164091
Core_0_LLC_RFO_hit 26485
Core_0_LLC_RFO_miss 137606
Core_0_LLC_prefetches 372634
Core_0_LLC_prefetch_hit 87605
Core_0_LLC_prefetch_miss 285029
Core_0_LLC_writebacks 163846
Core_0_LLC_writeback_hit 26824
Core_0_LLC_writeback_miss 137022
Core_0_LLC_prefetch_requested 0
Core_0_LLC_prefetch_issued 0
Core_0_LLC_prefetch_useful 628
Core_0_LLC_prefetch_useless 575970
Core_0_LLC_prefetch_late 0
Core_0_LLC_average_miss_latency 187.47479

Core_0_major_page_fault 0
Core_0_minor_page_fault 8761

CPU 0 L1D next line prefetcher final stats
CPU 0 L2C next line prefetcher final stats
Channel_0_RQ_row_buffer_hit 127153
Channel_0_RQ_row_buffer_miss 300302
Channel_0_WQ_row_buffer_hit 14583
Channel_0_WQ_row_buffer_miss 122488
Channel_0_WQ_full 0
Channel_0_dbus_congested 134618

avg_congested_cycle 10
