*************************************************
   ChampSim Multicore Out-of-Order Simulator
   Last compiled: Dec 22 2023 20:32:43
*************************************************

trace_0 ./test_trace/436.cactusADM-1804B.champsimtrace.xz
CPU 0 L2C IP-based stride prefetcher
warmup_instructions 100000000
simulation_instructions 100000000
champsim_seed 271

num_cpus 1
cpu_freq 4000
dram_io_freq 2400
page_size 4096
block_size 64
max_read_per_cycle 8
max_fill_per_cycle 1
dram_channels 1
dram_ranks 1
dram_banks 8
dram_rows 65536
dram_columns 128
dram_row_size 8
dram_size 4096
dram_pages 1048576

fetch_width 6
decode_width 6
exec_width 4
lq_width 2
sq_width 2
retire_width 4
scheduler_size 128
branch_mispredict_penalty 20
rob_size 256
lq_size 72
sq_size 56
num_instr_destinations_sparc 4
num_instr_destinations 2
num_instr_sources 4

itlb_set 16
itlb_way 8
itlb_rq_size 16
itlb_wq_size 16
itlb_pq_size 0
itlb_mshr_size 8
itlb_latency 1

dtlb_set 16
dtlb_way 4
dtlb_rq_size 16
dtlb_wq_size 16
dtlb_pq_size 0
dtlb_mshr_size 8
dtlb_latency 1

stlb_set 128
stlb_way 12
stlb_rq_size 32
stlb_wq_size 32
stlb_pq_size 0
stlb_mshr_size 16
stlb_latency 8

l1i_size 32
l1i_set 64
l1i_way 8
l1i_rq_size 64
l1i_wq_size 64
l1i_pq_size 8
l1i_mshr_size 8
l1i_latency 1

l1d_size 32
l1d_set 64
l1d_way 8
l1d_rq_size 64
l1d_wq_size 64
l1d_pq_size 8
l1d_mshr_size 16
l1d_latency 4

l2c_size 512
l2c_set 1024
l2c_way 8
l2c_rq_size 32
l2c_wq_size 32
l2c_pq_size 16
l2c_mshr_size 32
l2c_latency 10

llc_size 2048
llc_set 2048
llc_way 16
llc_rq_size 32
llc_wq_size 32
llc_pq_size 32
llc_mshr_size 64
llc_latency 20

dram_channel_width 8
dram_wq_size 64
dram_rq_size 64
tRP 15
tRCD 15
tCAS 12.5
dram_dbus_turn_around_time 30
dram_write_high_wm 56
dram_write_low_wm 48
min_dram_writes_per_switch 16
dram_mtps 2400
dram_dbus_return_time 13


Heartbeat CPU  0 instructions:    1000000 cycles:     702362 heartbeat IPC: 1.42377 cumulative IPC: 1.42377 (Simulation time: 0 hr 0 min 2 sec) 
Heartbeat CPU  0 instructions:    2000000 cycles:    1404584 heartbeat IPC: 1.42405 cumulative IPC: 1.42391 (Simulation time: 0 hr 0 min 4 sec) 
Heartbeat CPU  0 instructions:    3000000 cycles:    2106873 heartbeat IPC: 1.42392 cumulative IPC: 1.42391 (Simulation time: 0 hr 0 min 6 sec) 
Heartbeat CPU  0 instructions:    4000000 cycles:    2809194 heartbeat IPC: 1.42385 cumulative IPC: 1.42390 (Simulation time: 0 hr 0 min 8 sec) 
Heartbeat CPU  0 instructions:    5000000 cycles:    3511394 heartbeat IPC: 1.42410 cumulative IPC: 1.42394 (Simulation time: 0 hr 0 min 10 sec) 
Heartbeat CPU  0 instructions:    6000000 cycles:    4213723 heartbeat IPC: 1.42383 cumulative IPC: 1.42392 (Simulation time: 0 hr 0 min 11 sec) 
Heartbeat CPU  0 instructions:    7000001 cycles:    4916121 heartbeat IPC: 1.42370 cumulative IPC: 1.42389 (Simulation time: 0 hr 0 min 13 sec) 
Heartbeat CPU  0 instructions:    8000000 cycles:    5618242 heartbeat IPC: 1.42425 cumulative IPC: 1.42393 (Simulation time: 0 hr 0 min 15 sec) 
Heartbeat CPU  0 instructions:    9000001 cycles:    6320749 heartbeat IPC: 1.42347 cumulative IPC: 1.42388 (Simulation time: 0 hr 0 min 17 sec) 
Heartbeat CPU  0 instructions:   10000000 cycles:    7022946 heartbeat IPC: 1.42410 cumulative IPC: 1.42390 (Simulation time: 0 hr 0 min 19 sec) 
Heartbeat CPU  0 instructions:   11000002 cycles:    7725147 heartbeat IPC: 1.42410 cumulative IPC: 1.42392 (Simulation time: 0 hr 0 min 21 sec) 
Heartbeat CPU  0 instructions:   12000000 cycles:    8427313 heartbeat IPC: 1.42416 cumulative IPC: 1.42394 (Simulation time: 0 hr 0 min 23 sec) 
Heartbeat CPU  0 instructions:   13000000 cycles:    9129853 heartbeat IPC: 1.42341 cumulative IPC: 1.42390 (Simulation time: 0 hr 0 min 25 sec) 
Heartbeat CPU  0 instructions:   14000002 cycles:    9832122 heartbeat IPC: 1.42396 cumulative IPC: 1.42390 (Simulation time: 0 hr 0 min 27 sec) 
Heartbeat CPU  0 instructions:   15000002 cycles:   10534066 heartbeat IPC: 1.42462 cumulative IPC: 1.42395 (Simulation time: 0 hr 0 min 29 sec) 
Heartbeat CPU  0 instructions:   16000000 cycles:   11236602 heartbeat IPC: 1.42341 cumulative IPC: 1.42392 (Simulation time: 0 hr 0 min 31 sec) 
Heartbeat CPU  0 instructions:   17000000 cycles:   11939132 heartbeat IPC: 1.42343 cumulative IPC: 1.42389 (Simulation time: 0 hr 0 min 32 sec) 
Heartbeat CPU  0 instructions:   18000001 cycles:   12600057 heartbeat IPC: 1.51303 cumulative IPC: 1.42857 (Simulation time: 0 hr 0 min 34 sec) 
Heartbeat CPU  0 instructions:   19000000 cycles:   13235115 heartbeat IPC: 1.57466 cumulative IPC: 1.43558 (Simulation time: 0 hr 0 min 36 sec) 
Heartbeat CPU  0 instructions:   20000000 cycles:   13937665 heartbeat IPC: 1.42339 cumulative IPC: 1.43496 (Simulation time: 0 hr 0 min 38 sec) 
Heartbeat CPU  0 instructions:   21000000 cycles:   14640029 heartbeat IPC: 1.42376 cumulative IPC: 1.43442 (Simulation time: 0 hr 0 min 40 sec) 
Heartbeat CPU  0 instructions:   22000002 cycles:   15342328 heartbeat IPC: 1.42390 cumulative IPC: 1.43394 (Simulation time: 0 hr 0 min 42 sec) 
Heartbeat CPU  0 instructions:   23000001 cycles:   16044696 heartbeat IPC: 1.42375 cumulative IPC: 1.43350 (Simulation time: 0 hr 0 min 43 sec) 
Heartbeat CPU  0 instructions:   24000000 cycles:   16746812 heartbeat IPC: 1.42426 cumulative IPC: 1.43311 (Simulation time: 0 hr 0 min 45 sec) 
Heartbeat CPU  0 instructions:   25000001 cycles:   17449135 heartbeat IPC: 1.42385 cumulative IPC: 1.43274 (Simulation time: 0 hr 0 min 47 sec) 
Heartbeat CPU  0 instructions:   26000003 cycles:   18151769 heartbeat IPC: 1.42322 cumulative IPC: 1.43237 (Simulation time: 0 hr 0 min 49 sec) 
Heartbeat CPU  0 instructions:   27000003 cycles:   18853940 heartbeat IPC: 1.42415 cumulative IPC: 1.43206 (Simulation time: 0 hr 0 min 51 sec) 
Heartbeat CPU  0 instructions:   28000000 cycles:   19556088 heartbeat IPC: 1.42420 cumulative IPC: 1.43178 (Simulation time: 0 hr 0 min 53 sec) 
Heartbeat CPU  0 instructions:   29000000 cycles:   20258513 heartbeat IPC: 1.42364 cumulative IPC: 1.43150 (Simulation time: 0 hr 0 min 55 sec) 
Heartbeat CPU  0 instructions:   30000003 cycles:   20960867 heartbeat IPC: 1.42379 cumulative IPC: 1.43124 (Simulation time: 0 hr 0 min 56 sec) 
Heartbeat CPU  0 instructions:   31000003 cycles:   21662822 heartbeat IPC: 1.42459 cumulative IPC: 1.43102 (Simulation time: 0 hr 0 min 58 sec) 
Heartbeat CPU  0 instructions:   32000000 cycles:   22364888 heartbeat IPC: 1.42436 cumulative IPC: 1.43081 (Simulation time: 0 hr 1 min 0 sec) 
Heartbeat CPU  0 instructions:   33000001 cycles:   23067623 heartbeat IPC: 1.42301 cumulative IPC: 1.43058 (Simulation time: 0 hr 1 min 2 sec) 
Heartbeat CPU  0 instructions:   34000000 cycles:   23769743 heartbeat IPC: 1.42426 cumulative IPC: 1.43039 (Simulation time: 0 hr 1 min 4 sec) 
Heartbeat CPU  0 instructions:   35000001 cycles:   24471987 heartbeat IPC: 1.42401 cumulative IPC: 1.43021 (Simulation time: 0 hr 1 min 6 sec) 
Heartbeat CPU  0 instructions:   36000000 cycles:   25174252 heartbeat IPC: 1.42396 cumulative IPC: 1.43003 (Simulation time: 0 hr 1 min 8 sec) 
Heartbeat CPU  0 instructions:   37000000 cycles:   25876851 heartbeat IPC: 1.42329 cumulative IPC: 1.42985 (Simulation time: 0 hr 1 min 10 sec) 
Heartbeat CPU  0 instructions:   38000001 cycles:   26579039 heartbeat IPC: 1.42412 cumulative IPC: 1.42970 (Simulation time: 0 hr 1 min 12 sec) 
Heartbeat CPU  0 instructions:   39000000 cycles:   27281310 heartbeat IPC: 1.42395 cumulative IPC: 1.42955 (Simulation time: 0 hr 1 min 13 sec) 
Heartbeat CPU  0 instructions:   40000000 cycles:   27983525 heartbeat IPC: 1.42407 cumulative IPC: 1.42941 (Simulation time: 0 hr 1 min 15 sec) 
Heartbeat CPU  0 instructions:   41000000 cycles:   28588529 heartbeat IPC: 1.65288 cumulative IPC: 1.43414 (Simulation time: 0 hr 1 min 17 sec) 
Heartbeat CPU  0 instructions:   42000002 cycles:   29279908 heartbeat IPC: 1.44639 cumulative IPC: 1.43443 (Simulation time: 0 hr 1 min 19 sec) 
Heartbeat CPU  0 instructions:   43000002 cycles:   29982313 heartbeat IPC: 1.42368 cumulative IPC: 1.43418 (Simulation time: 0 hr 1 min 21 sec) 
Heartbeat CPU  0 instructions:   44000000 cycles:   30684724 heartbeat IPC: 1.42367 cumulative IPC: 1.43394 (Simulation time: 0 hr 1 min 23 sec) 
Heartbeat CPU  0 instructions:   45000003 cycles:   31387008 heartbeat IPC: 1.42393 cumulative IPC: 1.43371 (Simulation time: 0 hr 1 min 25 sec) 
Heartbeat CPU  0 instructions:   46000003 cycles:   32089214 heartbeat IPC: 1.42408 cumulative IPC: 1.43350 (Simulation time: 0 hr 1 min 26 sec) 
Heartbeat CPU  0 instructions:   47000000 cycles:   32791404 heartbeat IPC: 1.42411 cumulative IPC: 1.43330 (Simulation time: 0 hr 1 min 28 sec) 
Heartbeat CPU  0 instructions:   48000000 cycles:   33494003 heartbeat IPC: 1.42329 cumulative IPC: 1.43309 (Simulation time: 0 hr 1 min 30 sec) 
Heartbeat CPU  0 instructions:   49000000 cycles:   34195996 heartbeat IPC: 1.42452 cumulative IPC: 1.43292 (Simulation time: 0 hr 1 min 32 sec) 
Heartbeat CPU  0 instructions:   50000000 cycles:   34898302 heartbeat IPC: 1.42388 cumulative IPC: 1.43273 (Simulation time: 0 hr 1 min 34 sec) 
Heartbeat CPU  0 instructions:   51000000 cycles:   35600828 heartbeat IPC: 1.42343 cumulative IPC: 1.43255 (Simulation time: 0 hr 1 min 36 sec) 
Heartbeat CPU  0 instructions:   52000000 cycles:   36303004 heartbeat IPC: 1.42414 cumulative IPC: 1.43239 (Simulation time: 0 hr 1 min 38 sec) 
Heartbeat CPU  0 instructions:   53000000 cycles:   37005395 heartbeat IPC: 1.42371 cumulative IPC: 1.43222 (Simulation time: 0 hr 1 min 40 sec) 
Heartbeat CPU  0 instructions:   54000001 cycles:   37707450 heartbeat IPC: 1.42439 cumulative IPC: 1.43208 (Simulation time: 0 hr 1 min 41 sec) 
Heartbeat CPU  0 instructions:   55000001 cycles:   38409740 heartbeat IPC: 1.42391 cumulative IPC: 1.43193 (Simulation time: 0 hr 1 min 43 sec) 
Heartbeat CPU  0 instructions:   56000000 cycles:   39112207 heartbeat IPC: 1.42355 cumulative IPC: 1.43178 (Simulation time: 0 hr 1 min 45 sec) 
Heartbeat CPU  0 instructions:   57000000 cycles:   39814661 heartbeat IPC: 1.42358 cumulative IPC: 1.43163 (Simulation time: 0 hr 1 min 47 sec) 
Heartbeat CPU  0 instructions:   58000003 cycles:   40516989 heartbeat IPC: 1.42384 cumulative IPC: 1.43150 (Simulation time: 0 hr 1 min 49 sec) 
Heartbeat CPU  0 instructions:   59000000 cycles:   41219131 heartbeat IPC: 1.42421 cumulative IPC: 1.43137 (Simulation time: 0 hr 1 min 51 sec) 
Heartbeat CPU  0 instructions:   60000000 cycles:   41921567 heartbeat IPC: 1.42362 cumulative IPC: 1.43124 (Simulation time: 0 hr 1 min 52 sec) 
Heartbeat CPU  0 instructions:   61000000 cycles:   42623777 heartbeat IPC: 1.42408 cumulative IPC: 1.43113 (Simulation time: 0 hr 1 min 54 sec) 
Heartbeat CPU  0 instructions:   62000002 cycles:   43326033 heartbeat IPC: 1.42399 cumulative IPC: 1.43101 (Simulation time: 0 hr 1 min 56 sec) 
Heartbeat CPU  0 instructions:   63000000 cycles:   43973264 heartbeat IPC: 1.54504 cumulative IPC: 1.43269 (Simulation time: 0 hr 1 min 58 sec) 
Heartbeat CPU  0 instructions:   64000000 cycles:   44624332 heartbeat IPC: 1.53594 cumulative IPC: 1.43420 (Simulation time: 0 hr 2 min 0 sec) 
Heartbeat CPU  0 instructions:   65000000 cycles:   45326356 heartbeat IPC: 1.42445 cumulative IPC: 1.43404 (Simulation time: 0 hr 2 min 2 sec) 
Heartbeat CPU  0 instructions:   66000001 cycles:   46028445 heartbeat IPC: 1.42432 cumulative IPC: 1.43390 (Simulation time: 0 hr 2 min 4 sec) 
Heartbeat CPU  0 instructions:   67000002 cycles:   46730519 heartbeat IPC: 1.42435 cumulative IPC: 1.43375 (Simulation time: 0 hr 2 min 5 sec) 
Heartbeat CPU  0 instructions:   68000000 cycles:   47432927 heartbeat IPC: 1.42367 cumulative IPC: 1.43360 (Simulation time: 0 hr 2 min 7 sec) 
Heartbeat CPU  0 instructions:   69000000 cycles:   48135154 heartbeat IPC: 1.42404 cumulative IPC: 1.43346 (Simulation time: 0 hr 2 min 9 sec) 
Heartbeat CPU  0 instructions:   70000002 cycles:   48837243 heartbeat IPC: 1.42432 cumulative IPC: 1.43333 (Simulation time: 0 hr 2 min 11 sec) 
Heartbeat CPU  0 instructions:   71000003 cycles:   49539851 heartbeat IPC: 1.42327 cumulative IPC: 1.43319 (Simulation time: 0 hr 2 min 13 sec) 
Heartbeat CPU  0 instructions:   72000000 cycles:   50241917 heartbeat IPC: 1.42436 cumulative IPC: 1.43307 (Simulation time: 0 hr 2 min 15 sec) 
Heartbeat CPU  0 instructions:   73000001 cycles:   50944093 heartbeat IPC: 1.42415 cumulative IPC: 1.43294 (Simulation time: 0 hr 2 min 17 sec) 
Heartbeat CPU  0 instructions:   74000003 cycles:   51646459 heartbeat IPC: 1.42376 cumulative IPC: 1.43282 (Simulation time: 0 hr 2 min 19 sec) 
Heartbeat CPU  0 instructions:   75000002 cycles:   52349134 heartbeat IPC: 1.42313 cumulative IPC: 1.43269 (Simulation time: 0 hr 2 min 21 sec) 
Heartbeat CPU  0 instructions:   76000000 cycles:   53051332 heartbeat IPC: 1.42410 cumulative IPC: 1.43257 (Simulation time: 0 hr 2 min 22 sec) 
Heartbeat CPU  0 instructions:   77000003 cycles:   53753922 heartbeat IPC: 1.42331 cumulative IPC: 1.43245 (Simulation time: 0 hr 2 min 24 sec) 
Heartbeat CPU  0 instructions:   78000001 cycles:   54456434 heartbeat IPC: 1.42346 cumulative IPC: 1.43234 (Simulation time: 0 hr 2 min 26 sec) 
Heartbeat CPU  0 instructions:   79000001 cycles:   55158376 heartbeat IPC: 1.42462 cumulative IPC: 1.43224 (Simulation time: 0 hr 2 min 28 sec) 
Heartbeat CPU  0 instructions:   80000000 cycles:   55860415 heartbeat IPC: 1.42442 cumulative IPC: 1.43214 (Simulation time: 0 hr 2 min 30 sec) 
Heartbeat CPU  0 instructions:   81000002 cycles:   56562771 heartbeat IPC: 1.42378 cumulative IPC: 1.43204 (Simulation time: 0 hr 2 min 32 sec) 
Heartbeat CPU  0 instructions:   82000003 cycles:   57265015 heartbeat IPC: 1.42401 cumulative IPC: 1.43194 (Simulation time: 0 hr 2 min 34 sec) 
Heartbeat CPU  0 instructions:   83000001 cycles:   57967256 heartbeat IPC: 1.42401 cumulative IPC: 1.43184 (Simulation time: 0 hr 2 min 36 sec) 
Heartbeat CPU  0 instructions:   84000000 cycles:   58669461 heartbeat IPC: 1.42408 cumulative IPC: 1.43175 (Simulation time: 0 hr 2 min 37 sec) 
Heartbeat CPU  0 instructions:   85000000 cycles:   59358077 heartbeat IPC: 1.45219 cumulative IPC: 1.43199 (Simulation time: 0 hr 2 min 39 sec) 
Heartbeat CPU  0 instructions:   86000002 cycles:   59967073 heartbeat IPC: 1.64205 cumulative IPC: 1.43412 (Simulation time: 0 hr 2 min 41 sec) 
Heartbeat CPU  0 instructions:   87000002 cycles:   60669553 heartbeat IPC: 1.42353 cumulative IPC: 1.43400 (Simulation time: 0 hr 2 min 43 sec) 
Heartbeat CPU  0 instructions:   88000000 cycles:   61372175 heartbeat IPC: 1.42324 cumulative IPC: 1.43387 (Simulation time: 0 hr 2 min 45 sec) 
Heartbeat CPU  0 instructions:   89000001 cycles:   62074215 heartbeat IPC: 1.42442 cumulative IPC: 1.43377 (Simulation time: 0 hr 2 min 47 sec) 
Heartbeat CPU  0 instructions:   90000003 cycles:   62776563 heartbeat IPC: 1.42380 cumulative IPC: 1.43366 (Simulation time: 0 hr 2 min 49 sec) 
Heartbeat CPU  0 instructions:   91000003 cycles:   63478987 heartbeat IPC: 1.42364 cumulative IPC: 1.43355 (Simulation time: 0 hr 2 min 51 sec) 
Heartbeat CPU  0 instructions:   92000000 cycles:   64181183 heartbeat IPC: 1.42410 cumulative IPC: 1.43344 (Simulation time: 0 hr 2 min 53 sec) 
Heartbeat CPU  0 instructions:   93000002 cycles:   64883518 heartbeat IPC: 1.42382 cumulative IPC: 1.43334 (Simulation time: 0 hr 2 min 55 sec) 
Heartbeat CPU  0 instructions:   94000002 cycles:   65585516 heartbeat IPC: 1.42451 cumulative IPC: 1.43324 (Simulation time: 0 hr 2 min 57 sec) 
Heartbeat CPU  0 instructions:   95000003 cycles:   66287700 heartbeat IPC: 1.42413 cumulative IPC: 1.43315 (Simulation time: 0 hr 2 min 59 sec) 
Heartbeat CPU  0 instructions:   96000000 cycles:   66990004 heartbeat IPC: 1.42388 cumulative IPC: 1.43305 (Simulation time: 0 hr 3 min 0 sec) 
Heartbeat CPU  0 instructions:   97000000 cycles:   67692350 heartbeat IPC: 1.42380 cumulative IPC: 1.43295 (Simulation time: 0 hr 3 min 2 sec) 
Heartbeat CPU  0 instructions:   98000002 cycles:   68394522 heartbeat IPC: 1.42416 cumulative IPC: 1.43286 (Simulation time: 0 hr 3 min 4 sec) 
Heartbeat CPU  0 instructions:   99000003 cycles:   69096739 heartbeat IPC: 1.42406 cumulative IPC: 1.43277 (Simulation time: 0 hr 3 min 6 sec) 
Heartbeat CPU  0 instructions:  100000000 cycles:   69799121 heartbeat IPC: 1.42372 cumulative IPC: 1.43268 (Simulation time: 0 hr 3 min 8 sec) 

Warmup complete CPU  0 instructions:  100000001 cycles:   69799141 (Simulation time: 0 hr 3 min 8 sec) 

Heartbeat CPU  0 instructions:  101000000 cycles:   71744804 heartbeat IPC: 0.51396 cumulative IPC: 0.51396 (Simulation time: 0 hr 3 min 10 sec) 
Heartbeat CPU  0 instructions:  102000003 cycles:   73524088 heartbeat IPC: 0.56203 cumulative IPC: 0.53692 (Simulation time: 0 hr 3 min 12 sec) 
Heartbeat CPU  0 instructions:  103000003 cycles:   75409788 heartbeat IPC: 0.53031 cumulative IPC: 0.53470 (Simulation time: 0 hr 3 min 15 sec) 
Heartbeat CPU  0 instructions:  104000000 cycles:   77343378 heartbeat IPC: 0.51717 cumulative IPC: 0.53021 (Simulation time: 0 hr 3 min 17 sec) 
Heartbeat CPU  0 instructions:  105000002 cycles:   79202863 heartbeat IPC: 0.53778 cumulative IPC: 0.53170 (Simulation time: 0 hr 3 min 19 sec) 
Heartbeat CPU  0 instructions:  106000000 cycles:   81020988 heartbeat IPC: 0.55002 cumulative IPC: 0.53467 (Simulation time: 0 hr 3 min 21 sec) 
Heartbeat CPU  0 instructions:  107000003 cycles:   82952249 heartbeat IPC: 0.51780 cumulative IPC: 0.53219 (Simulation time: 0 hr 3 min 23 sec) 
Heartbeat CPU  0 instructions:  108000000 cycles:   93790618 heartbeat IPC: 0.09226 cumulative IPC: 0.33345 (Simulation time: 0 hr 3 min 25 sec) 
Heartbeat CPU  0 instructions:  109000003 cycles:  100658025 heartbeat IPC: 0.14562 cumulative IPC: 0.29165 (Simulation time: 0 hr 3 min 28 sec) 
Heartbeat CPU  0 instructions:  110000001 cycles:  102586226 heartbeat IPC: 0.51862 cumulative IPC: 0.30500 (Simulation time: 0 hr 3 min 30 sec) 
Heartbeat CPU  0 instructions:  111000000 cycles:  104521451 heartbeat IPC: 0.51674 cumulative IPC: 0.31680 (Simulation time: 0 hr 3 min 32 sec) 
Heartbeat CPU  0 instructions:  112000000 cycles:  106309798 heartbeat IPC: 0.55918 cumulative IPC: 0.32867 (Simulation time: 0 hr 3 min 34 sec) 
Heartbeat CPU  0 instructions:  113000000 cycles:  108199229 heartbeat IPC: 0.52926 cumulative IPC: 0.33854 (Simulation time: 0 hr 3 min 37 sec) 
Heartbeat CPU  0 instructions:  114000000 cycles:  110146297 heartbeat IPC: 0.51359 cumulative IPC: 0.34699 (Simulation time: 0 hr 3 min 39 sec) 
Heartbeat CPU  0 instructions:  115000001 cycles:  112000767 heartbeat IPC: 0.53924 cumulative IPC: 0.35544 (Simulation time: 0 hr 3 min 41 sec) 
Heartbeat CPU  0 instructions:  116000000 cycles:  113817179 heartbeat IPC: 0.55054 cumulative IPC: 0.36349 (Simulation time: 0 hr 3 min 43 sec) 
Heartbeat CPU  0 instructions:  117000003 cycles:  115757646 heartbeat IPC: 0.51534 cumulative IPC: 0.36990 (Simulation time: 0 hr 3 min 45 sec) 
Heartbeat CPU  0 instructions:  118000002 cycles:  117678709 heartbeat IPC: 0.52054 cumulative IPC: 0.37594 (Simulation time: 0 hr 3 min 47 sec) 
Heartbeat CPU  0 instructions:  119000002 cycles:  119444223 heartbeat IPC: 0.56641 cumulative IPC: 0.38272 (Simulation time: 0 hr 3 min 49 sec) 
Heartbeat CPU  0 instructions:  120000000 cycles:  121367736 heartbeat IPC: 0.51988 cumulative IPC: 0.38783 (Simulation time: 0 hr 3 min 51 sec) 
Heartbeat CPU  0 instructions:  121000003 cycles:  123303348 heartbeat IPC: 0.51663 cumulative IPC: 0.39249 (Simulation time: 0 hr 3 min 54 sec) 
Heartbeat CPU  0 instructions:  122000002 cycles:  125103301 heartbeat IPC: 0.55557 cumulative IPC: 0.39780 (Simulation time: 0 hr 3 min 56 sec) 
Heartbeat CPU  0 instructions:  123000002 cycles:  126977953 heartbeat IPC: 0.53343 cumulative IPC: 0.40225 (Simulation time: 0 hr 3 min 58 sec) 
Heartbeat CPU  0 instructions:  124000000 cycles:  128915221 heartbeat IPC: 0.51619 cumulative IPC: 0.40598 (Simulation time: 0 hr 4 min 0 sec) 
Heartbeat CPU  0 instructions:  125000000 cycles:  130791537 heartbeat IPC: 0.53296 cumulative IPC: 0.40989 (Simulation time: 0 hr 4 min 2 sec) 
Heartbeat CPU  0 instructions:  126000002 cycles:  132606454 heartbeat IPC: 0.55099 cumulative IPC: 0.41396 (Simulation time: 0 hr 4 min 4 sec) 
Heartbeat CPU  0 instructions:  127000002 cycles:  134664462 heartbeat IPC: 0.48591 cumulative IPC: 0.41625 (Simulation time: 0 hr 4 min 7 sec) 
Heartbeat CPU  0 instructions:  128000000 cycles:  136590993 heartbeat IPC: 0.51907 cumulative IPC: 0.41921 (Simulation time: 0 hr 4 min 9 sec) 
Heartbeat CPU  0 instructions:  129000001 cycles:  138353518 heartbeat IPC: 0.56737 cumulative IPC: 0.42302 (Simulation time: 0 hr 4 min 11 sec) 
Heartbeat CPU  0 instructions:  130000000 cycles:  143924956 heartbeat IPC: 0.17949 cumulative IPC: 0.40472 (Simulation time: 0 hr 4 min 13 sec) 
Heartbeat CPU  0 instructions:  131000003 cycles:  156171415 heartbeat IPC: 0.08166 cumulative IPC: 0.35891 (Simulation time: 0 hr 4 min 16 sec) 
Heartbeat CPU  0 instructions:  132000000 cycles:  157972433 heartbeat IPC: 0.55524 cumulative IPC: 0.36292 (Simulation time: 0 hr 4 min 18 sec) 
Heartbeat CPU  0 instructions:  133000000 cycles:  159847353 heartbeat IPC: 0.53336 cumulative IPC: 0.36647 (Simulation time: 0 hr 4 min 20 sec) 
Heartbeat CPU  0 instructions:  134000000 cycles:  161786748 heartbeat IPC: 0.51562 cumulative IPC: 0.36961 (Simulation time: 0 hr 4 min 22 sec) 
Heartbeat CPU  0 instructions:  135000000 cycles:  163661298 heartbeat IPC: 0.53346 cumulative IPC: 0.37289 (Simulation time: 0 hr 4 min 24 sec) 
Heartbeat CPU  0 instructions:  136000000 cycles:  165460757 heartbeat IPC: 0.55572 cumulative IPC: 0.37633 (Simulation time: 0 hr 4 min 27 sec) 
Heartbeat CPU  0 instructions:  137000002 cycles:  167397651 heartbeat IPC: 0.51629 cumulative IPC: 0.37910 (Simulation time: 0 hr 4 min 29 sec) 
Heartbeat CPU  0 instructions:  138000001 cycles:  169326655 heartbeat IPC: 0.51840 cumulative IPC: 0.38180 (Simulation time: 0 hr 4 min 31 sec) 
Heartbeat CPU  0 instructions:  139000001 cycles:  171089580 heartbeat IPC: 0.56724 cumulative IPC: 0.38503 (Simulation time: 0 hr 4 min 33 sec) 
Heartbeat CPU  0 instructions:  140000000 cycles:  173019431 heartbeat IPC: 0.51817 cumulative IPC: 0.38752 (Simulation time: 0 hr 4 min 36 sec) 
Heartbeat CPU  0 instructions:  141000000 cycles:  174957594 heartbeat IPC: 0.51595 cumulative IPC: 0.38989 (Simulation time: 0 hr 4 min 38 sec) 
Heartbeat CPU  0 instructions:  142000001 cycles:  176770488 heartbeat IPC: 0.55160 cumulative IPC: 0.39263 (Simulation time: 0 hr 4 min 40 sec) 
Heartbeat CPU  0 instructions:  143000001 cycles:  178627133 heartbeat IPC: 0.53861 cumulative IPC: 0.39512 (Simulation time: 0 hr 4 min 42 sec) 
Heartbeat CPU  0 instructions:  144000000 cycles:  180568373 heartbeat IPC: 0.51513 cumulative IPC: 0.39722 (Simulation time: 0 hr 4 min 44 sec) 
Heartbeat CPU  0 instructions:  145000000 cycles:  182457669 heartbeat IPC: 0.52930 cumulative IPC: 0.39944 (Simulation time: 0 hr 4 min 46 sec) 
Heartbeat CPU  0 instructions:  146000002 cycles:  184242414 heartbeat IPC: 0.56031 cumulative IPC: 0.40195 (Simulation time: 0 hr 4 min 48 sec) 
Heartbeat CPU  0 instructions:  147000003 cycles:  186179379 heartbeat IPC: 0.51627 cumulative IPC: 0.40385 (Simulation time: 0 hr 4 min 50 sec) 
Heartbeat CPU  0 instructions:  148000000 cycles:  188107387 heartbeat IPC: 0.51867 cumulative IPC: 0.40572 (Simulation time: 0 hr 4 min 53 sec) 
Heartbeat CPU  0 instructions:  149000002 cycles:  189875308 heartbeat IPC: 0.56564 cumulative IPC: 0.40807 (Simulation time: 0 hr 4 min 55 sec) 
Heartbeat CPU  0 instructions:  150000003 cycles:  191788589 heartbeat IPC: 0.52266 cumulative IPC: 0.40987 (Simulation time: 0 hr 4 min 57 sec) 
Heartbeat CPU  0 instructions:  151000003 cycles:  193721446 heartbeat IPC: 0.51737 cumulative IPC: 0.41155 (Simulation time: 0 hr 4 min 59 sec) 
Heartbeat CPU  0 instructions:  152000000 cycles:  195564462 heartbeat IPC: 0.54259 cumulative IPC: 0.41347 (Simulation time: 0 hr 5 min 1 sec) 
Heartbeat CPU  0 instructions:  153000003 cycles:  208499671 heartbeat IPC: 0.07731 cumulative IPC: 0.38212 (Simulation time: 0 hr 5 min 4 sec) 
Heartbeat CPU  0 instructions:  154000000 cycles:  213530487 heartbeat IPC: 0.19877 cumulative IPC: 0.37570 (Simulation time: 0 hr 5 min 6 sec) 
Heartbeat CPU  0 instructions:  155000000 cycles:  215420112 heartbeat IPC: 0.52921 cumulative IPC: 0.37769 (Simulation time: 0 hr 5 min 8 sec) 
Heartbeat CPU  0 instructions:  156000000 cycles:  217204067 heartbeat IPC: 0.56055 cumulative IPC: 0.37991 (Simulation time: 0 hr 5 min 10 sec) 
Heartbeat CPU  0 instructions:  157000001 cycles:  219139532 heartbeat IPC: 0.51667 cumulative IPC: 0.38168 (Simulation time: 0 hr 5 min 12 sec) 
Heartbeat CPU  0 instructions:  158000001 cycles:  221071377 heartbeat IPC: 0.51764 cumulative IPC: 0.38341 (Simulation time: 0 hr 5 min 14 sec) 
Heartbeat CPU  0 instructions:  159000000 cycles:  222838907 heartbeat IPC: 0.56576 cumulative IPC: 0.38552 (Simulation time: 0 hr 5 min 17 sec) 
Heartbeat CPU  0 instructions:  160000000 cycles:  224756675 heartbeat IPC: 0.52144 cumulative IPC: 0.38720 (Simulation time: 0 hr 5 min 19 sec) 
Heartbeat CPU  0 instructions:  161000003 cycles:  226697511 heartbeat IPC: 0.51524 cumulative IPC: 0.38879 (Simulation time: 0 hr 5 min 21 sec) 
Heartbeat CPU  0 instructions:  162000000 cycles:  228529843 heartbeat IPC: 0.54575 cumulative IPC: 0.39060 (Simulation time: 0 hr 5 min 23 sec) 
Heartbeat CPU  0 instructions:  163000003 cycles:  230370392 heartbeat IPC: 0.54332 cumulative IPC: 0.39235 (Simulation time: 0 hr 5 min 25 sec) 
Heartbeat CPU  0 instructions:  164000000 cycles:  232306505 heartbeat IPC: 0.51650 cumulative IPC: 0.39383 (Simulation time: 0 hr 5 min 27 sec) 
Heartbeat CPU  0 instructions:  165000000 cycles:  234224228 heartbeat IPC: 0.52145 cumulative IPC: 0.39532 (Simulation time: 0 hr 5 min 29 sec) 
Heartbeat CPU  0 instructions:  166000001 cycles:  235991403 heartbeat IPC: 0.56588 cumulative IPC: 0.39713 (Simulation time: 0 hr 5 min 32 sec) 
Heartbeat CPU  0 instructions:  167000000 cycles:  237923058 heartbeat IPC: 0.51769 cumulative IPC: 0.39852 (Simulation time: 0 hr 5 min 34 sec) 
Heartbeat CPU  0 instructions:  168000000 cycles:  239854926 heartbeat IPC: 0.51763 cumulative IPC: 0.39987 (Simulation time: 0 hr 5 min 36 sec) 
Heartbeat CPU  0 instructions:  169000001 cycles:  241633497 heartbeat IPC: 0.56225 cumulative IPC: 0.40155 (Simulation time: 0 hr 5 min 38 sec) 
Heartbeat CPU  0 instructions:  170000002 cycles:  243531126 heartbeat IPC: 0.52697 cumulative IPC: 0.40292 (Simulation time: 0 hr 5 min 40 sec) 
Heartbeat CPU  0 instructions:  171000001 cycles:  245471262 heartbeat IPC: 0.51543 cumulative IPC: 0.40416 (Simulation time: 0 hr 5 min 42 sec) 
Heartbeat CPU  0 instructions:  172000000 cycles:  247319689 heartbeat IPC: 0.54100 cumulative IPC: 0.40559 (Simulation time: 0 hr 5 min 44 sec) 
Heartbeat CPU  0 instructions:  173000000 cycles:  249141626 heartbeat IPC: 0.54887 cumulative IPC: 0.40704 (Simulation time: 0 hr 5 min 46 sec) 
Heartbeat CPU  0 instructions:  174000003 cycles:  251081680 heartbeat IPC: 0.51545 cumulative IPC: 0.40820 (Simulation time: 0 hr 5 min 49 sec) 
Heartbeat CPU  0 instructions:  175000000 cycles:  258332508 heartbeat IPC: 0.13791 cumulative IPC: 0.39781 (Simulation time: 0 hr 5 min 51 sec) 
Heartbeat CPU  0 instructions:  176000000 cycles:  268744834 heartbeat IPC: 0.09604 cumulative IPC: 0.38201 (Simulation time: 0 hr 5 min 53 sec) 
Heartbeat CPU  0 instructions:  177000001 cycles:  270750213 heartbeat IPC: 0.49866 cumulative IPC: 0.38318 (Simulation time: 0 hr 5 min 56 sec) 
Heartbeat CPU  0 instructions:  178000003 cycles:  272836587 heartbeat IPC: 0.47930 cumulative IPC: 0.38417 (Simulation time: 0 hr 5 min 58 sec) 
Heartbeat CPU  0 instructions:  179000002 cycles:  274782561 heartbeat IPC: 0.51388 cumulative IPC: 0.38540 (Simulation time: 0 hr 6 min 0 sec) 
Heartbeat CPU  0 instructions:  180000000 cycles:  276709069 heartbeat IPC: 0.51907 cumulative IPC: 0.38664 (Simulation time: 0 hr 6 min 2 sec) 
Heartbeat CPU  0 instructions:  181000003 cycles:  278662780 heartbeat IPC: 0.51185 cumulative IPC: 0.38781 (Simulation time: 0 hr 6 min 4 sec) 
Heartbeat CPU  0 instructions:  182000003 cycles:  280532976 heartbeat IPC: 0.53470 cumulative IPC: 0.38912 (Simulation time: 0 hr 6 min 6 sec) 
Heartbeat CPU  0 instructions:  183000000 cycles:  282384834 heartbeat IPC: 0.54000 cumulative IPC: 0.39043 (Simulation time: 0 hr 6 min 8 sec) 
Heartbeat CPU  0 instructions:  184000000 cycles:  284337397 heartbeat IPC: 0.51215 cumulative IPC: 0.39154 (Simulation time: 0 hr 6 min 11 sec) 
Heartbeat CPU  0 instructions:  185000002 cycles:  286277450 heartbeat IPC: 0.51545 cumulative IPC: 0.39265 (Simulation time: 0 hr 6 min 13 sec) 
Heartbeat CPU  0 instructions:  186000001 cycles:  288077500 heartbeat IPC: 0.55554 cumulative IPC: 0.39399 (Simulation time: 0 hr 6 min 15 sec) 
Heartbeat CPU  0 instructions:  187000000 cycles:  290020912 heartbeat IPC: 0.51456 cumulative IPC: 0.39506 (Simulation time: 0 hr 6 min 17 sec) 
Heartbeat CPU  0 instructions:  188000000 cycles:  291975382 heartbeat IPC: 0.51165 cumulative IPC: 0.39608 (Simulation time: 0 hr 6 min 19 sec) 
Heartbeat CPU  0 instructions:  189000000 cycles:  293786018 heartbeat IPC: 0.55229 cumulative IPC: 0.39734 (Simulation time: 0 hr 6 min 21 sec) 
Heartbeat CPU  0 instructions:  190000000 cycles:  295696770 heartbeat IPC: 0.52335 cumulative IPC: 0.39841 (Simulation time: 0 hr 6 min 23 sec) 
Heartbeat CPU  0 instructions:  191000000 cycles:  297651314 heartbeat IPC: 0.51163 cumulative IPC: 0.39938 (Simulation time: 0 hr 6 min 26 sec) 
Heartbeat CPU  0 instructions:  192000000 cycles:  299535835 heartbeat IPC: 0.53064 cumulative IPC: 0.40046 (Simulation time: 0 hr 6 min 28 sec) 
Heartbeat CPU  0 instructions:  193000001 cycles:  301373741 heartbeat IPC: 0.54410 cumulative IPC: 0.40160 (Simulation time: 0 hr 6 min 30 sec) 
Heartbeat CPU  0 instructions:  194000000 cycles:  303326729 heartbeat IPC: 0.51204 cumulative IPC: 0.40252 (Simulation time: 0 hr 6 min 32 sec) 
Heartbeat CPU  0 instructions:  195000002 cycles:  305268976 heartbeat IPC: 0.51487 cumulative IPC: 0.40345 (Simulation time: 0 hr 6 min 34 sec) 
Heartbeat CPU  0 instructions:  196000000 cycles:  307065043 heartbeat IPC: 0.55677 cumulative IPC: 0.40461 (Simulation time: 0 hr 6 min 36 sec) 
Heartbeat CPU  0 instructions:  197000000 cycles:  309114255 heartbeat IPC: 0.48799 cumulative IPC: 0.40532 (Simulation time: 0 hr 6 min 38 sec) 
Heartbeat CPU  0 instructions:  198000003 cycles:  323559005 heartbeat IPC: 0.06923 cumulative IPC: 0.38619 (Simulation time: 0 hr 6 min 41 sec) 
Heartbeat CPU  0 instructions:  199000001 cycles:  326737354 heartbeat IPC: 0.31463 cumulative IPC: 0.38531 (Simulation time: 0 hr 6 min 43 sec) 
Heartbeat CPU  0 instructions:  200000000 cycles:  328651104 heartbeat IPC: 0.52253 cumulative IPC: 0.38632 (Simulation time: 0 hr 6 min 45 sec) 
Finished CPU 0 instructions: 100000000 cycles: 258851991 cumulative IPC: 0.38632 (Simulation time: 0 hr 6 min 45 sec) 

ChampSim completed all CPUs

[ROI Statistics]
Core_0_instructions 100000000
Core_0_cycles 258851991
Core_0_IPC 0.38632

Core_0_branch_prediction_accuracy 99.16976
Core_0_branch_MPKI 0.01138
Core_0_average_ROB_occupancy_at_mispredict 253.38752

Core_0_L1D_total_access 50883574
Core_0_L1D_total_hit 50060852
Core_0_L1D_total_miss 822722
Core_0_L1D_loads 34163626
Core_0_L1D_load_hit 33505145
Core_0_L1D_load_miss 658481
Core_0_L1D_RFOs 16719948
Core_0_L1D_RFO_hit 16555707
Core_0_L1D_RFO_miss 164241
Core_0_L1D_prefetches 0
Core_0_L1D_prefetch_hit 0
Core_0_L1D_prefetch_miss 0
Core_0_L1D_writebacks 0
Core_0_L1D_writeback_hit 0
Core_0_L1D_writeback_miss 0
Core_0_L1D_prefetch_requested 0
Core_0_L1D_prefetch_issued 0
Core_0_L1D_prefetch_useful 0
Core_0_L1D_prefetch_useless 0
Core_0_L1D_prefetch_late 0
Core_0_L1D_average_miss_latency 108.52386

Core_0_L1I_total_access 26655649
Core_0_L1I_total_hit 26655649
Core_0_L1I_total_miss 0
Core_0_L1I_loads 26655649
Core_0_L1I_load_hit 26655649
Core_0_L1I_load_miss 0
Core_0_L1I_RFOs 0
Core_0_L1I_RFO_hit 0
Core_0_L1I_RFO_miss 0
Core_0_L1I_prefetches 0
Core_0_L1I_prefetch_hit 0
Core_0_L1I_prefetch_miss 0
Core_0_L1I_writebacks 0
Core_0_L1I_writeback_hit 0
Core_0_L1I_writeback_miss 0
Core_0_L1I_prefetch_requested 0
Core_0_L1I_prefetch_issued 0
Core_0_L1I_prefetch_useful 0
Core_0_L1I_prefetch_useless 0
Core_0_L1I_prefetch_late 0
Core_0_L1I_average_miss_latency -nan

Core_0_L2C_total_access 2681543
Core_0_L2C_total_hit 2138114
Core_0_L2C_total_miss 543429
Core_0_L2C_loads 658481
Core_0_L2C_load_hit 634874
Core_0_L2C_load_miss 23607
Core_0_L2C_RFOs 164241
Core_0_L2C_RFO_hit 79
Core_0_L2C_RFO_miss 164162
Core_0_L2C_prefetches 1687684
Core_0_L2C_prefetch_hit 1332214
Core_0_L2C_prefetch_miss 355470
Core_0_L2C_writebacks 171137
Core_0_L2C_writeback_hit 170947
Core_0_L2C_writeback_miss 190
Core_0_L2C_prefetch_requested 3511529
Core_0_L2C_prefetch_issued 3196193
Core_0_L2C_prefetch_useful 669711
Core_0_L2C_prefetch_useless 883
Core_0_L2C_prefetch_late 12
Core_0_L2C_average_miss_latency 289.99050

Core_0_LLC_total_access 708933
Core_0_LLC_total_hit 165465
Core_0_LLC_total_miss 543468
Core_0_LLC_loads 23595
Core_0_LLC_load_hit 265
Core_0_LLC_load_miss 23330
Core_0_LLC_RFOs 164162
Core_0_LLC_RFO_hit 0
Core_0_LLC_RFO_miss 164162
Core_0_LLC_prefetches 357295
Core_0_LLC_prefetch_hit 1545
Core_0_LLC_prefetch_miss 355750
Core_0_LLC_writebacks 163881
Core_0_LLC_writeback_hit 163655
Core_0_LLC_writeback_miss 226
Core_0_LLC_prefetch_requested 0
Core_0_LLC_prefetch_issued 0
Core_0_LLC_prefetch_useful 265
Core_0_LLC_prefetch_useless 653151
Core_0_LLC_prefetch_late 1
Core_0_LLC_average_miss_latency 225.29513

Core_0_major_page_fault 0
Core_0_minor_page_fault 8761

CPU 0 L2C PC-based stride prefetcher final stats
Channel_0_RQ_row_buffer_hit 136300
Channel_0_RQ_row_buffer_miss 406942
Channel_0_WQ_row_buffer_hit 22507
Channel_0_WQ_row_buffer_miss 133094
Channel_0_WQ_full 0
Channel_0_dbus_congested 191853

avg_congested_cycle 10
