*************************************************
   ChampSim Multicore Out-of-Order Simulator
   Last compiled: Dec 22 2023 17:44:40
*************************************************

trace_0 ./test_trace/436.cactusADM-1804B.champsimtrace.xz
CPU 0 L1D next line prefetcher
CPU 0 L2C IP-based stride prefetcher
Initialize DRRIP state
Assign rand_sets[0]: 454  LLC: 2048
rand_sets[0]: 454
Assign rand_sets[1]: 1662  LLC: 2048
rand_sets[1]: 1662
Assign rand_sets[2]: 1921  LLC: 2048
rand_sets[2]: 1921
Assign rand_sets[3]: 1131  LLC: 2048
rand_sets[3]: 1131
Assign rand_sets[4]: 331  LLC: 2048
rand_sets[4]: 331
Assign rand_sets[5]: 1531  LLC: 2048
rand_sets[5]: 1531
Assign rand_sets[6]: 482  LLC: 2048
rand_sets[6]: 482
Assign rand_sets[7]: 1275  LLC: 2048
rand_sets[7]: 1275
Assign rand_sets[8]: 1876  LLC: 2048
rand_sets[8]: 1876
Assign rand_sets[9]: 2038  LLC: 2048
rand_sets[9]: 2038
Assign rand_sets[10]: 701  LLC: 2048
rand_sets[10]: 701
Assign rand_sets[11]: 479  LLC: 2048
rand_sets[11]: 479
Assign rand_sets[12]: 892  LLC: 2048
rand_sets[12]: 892
Assign rand_sets[13]: 1820  LLC: 2048
rand_sets[13]: 1820
Assign rand_sets[14]: 1505  LLC: 2048
rand_sets[14]: 1505
Assign rand_sets[15]: 1159  LLC: 2048
rand_sets[15]: 1159
Assign rand_sets[16]: 513  LLC: 2048
rand_sets[16]: 513
Assign rand_sets[17]: 703  LLC: 2048
rand_sets[17]: 703
Assign rand_sets[18]: 561  LLC: 2048
rand_sets[18]: 561
Assign rand_sets[19]: 990  LLC: 2048
rand_sets[19]: 990
Assign rand_sets[20]: 342  LLC: 2048
rand_sets[20]: 342
Assign rand_sets[21]: 882  LLC: 2048
rand_sets[21]: 882
Assign rand_sets[22]: 15  LLC: 2048
rand_sets[22]: 15
Assign rand_sets[23]: 71  LLC: 2048
rand_sets[23]: 71
Assign rand_sets[24]: 1127  LLC: 2048
rand_sets[24]: 1127
Assign rand_sets[25]: 1382  LLC: 2048
rand_sets[25]: 1382
Assign rand_sets[26]: 647  LLC: 2048
rand_sets[26]: 647
Assign rand_sets[27]: 857  LLC: 2048
rand_sets[27]: 857
Assign rand_sets[28]: 1450  LLC: 2048
rand_sets[28]: 1450
Assign rand_sets[29]: 1160  LLC: 2048
rand_sets[29]: 1160
Assign rand_sets[30]: 1852  LLC: 2048
rand_sets[30]: 1852
Assign rand_sets[31]: 1881  LLC: 2048
rand_sets[31]: 1881
Assign rand_sets[32]: 1770  LLC: 2048
rand_sets[32]: 1770
Assign rand_sets[33]: 1622  LLC: 2048
rand_sets[33]: 1622
Assign rand_sets[34]: 275  LLC: 2048
rand_sets[34]: 275
Assign rand_sets[35]: 635  LLC: 2048
rand_sets[35]: 635
Assign rand_sets[36]: 466  LLC: 2048
rand_sets[36]: 466
Assign rand_sets[37]: 1413  LLC: 2048
rand_sets[37]: 1413
Assign rand_sets[38]: 417  LLC: 2048
rand_sets[38]: 417
Assign rand_sets[39]: 472  LLC: 2048
rand_sets[39]: 472
Assign rand_sets[40]: 1340  LLC: 2048
rand_sets[40]: 1340
Assign rand_sets[41]: 852  LLC: 2048
rand_sets[41]: 852
Assign rand_sets[42]: 1365  LLC: 2048
rand_sets[42]: 1365
Assign rand_sets[43]: 47  LLC: 2048
rand_sets[43]: 47
Assign rand_sets[44]: 823  LLC: 2048
rand_sets[44]: 823
Assign rand_sets[45]: 686  LLC: 2048
rand_sets[45]: 686
Assign rand_sets[46]: 1637  LLC: 2048
rand_sets[46]: 1637
Assign rand_sets[47]: 1115  LLC: 2048
rand_sets[47]: 1115
Assign rand_sets[48]: 986  LLC: 2048
rand_sets[48]: 986
Assign rand_sets[49]: 258  LLC: 2048
rand_sets[49]: 258
Assign rand_sets[50]: 633  LLC: 2048
rand_sets[50]: 633
Assign rand_sets[51]: 920  LLC: 2048
rand_sets[51]: 920
Assign rand_sets[52]: 204  LLC: 2048
rand_sets[52]: 204
Assign rand_sets[53]: 227  LLC: 2048
rand_sets[53]: 227
Assign rand_sets[54]: 1818  LLC: 2048
rand_sets[54]: 1818
Assign rand_sets[55]: 886  LLC: 2048
rand_sets[55]: 886
Assign rand_sets[56]: 1422  LLC: 2048
rand_sets[56]: 1422
Assign rand_sets[57]: 607  LLC: 2048
rand_sets[57]: 607
Assign rand_sets[58]: 217  LLC: 2048
rand_sets[58]: 217
Assign rand_sets[59]: 1945  LLC: 2048
rand_sets[59]: 1945
Assign rand_sets[60]: 143  LLC: 2048
rand_sets[60]: 143
Assign rand_sets[61]: 1311  LLC: 2048
rand_sets[61]: 1311
Assign rand_sets[62]: 319  LLC: 2048
rand_sets[62]: 319
Assign rand_sets[63]: 1846  LLC: 2048
rand_sets[63]: 1846
LLC Next Line Prefetcher
warmup_instructions 100000000
simulation_instructions 100000000
champsim_seed 271

num_cpus 1
cpu_freq 4000
dram_io_freq 2400
page_size 4096
block_size 64
max_read_per_cycle 8
max_fill_per_cycle 1
dram_channels 1
dram_ranks 1
dram_banks 8
dram_rows 65536
dram_columns 128
dram_row_size 8
dram_size 4096
dram_pages 1048576

fetch_width 6
decode_width 6
exec_width 4
lq_width 2
sq_width 2
retire_width 4
scheduler_size 128
branch_mispredict_penalty 20
rob_size 256
lq_size 72
sq_size 56
num_instr_destinations_sparc 4
num_instr_destinations 2
num_instr_sources 4

itlb_set 16
itlb_way 8
itlb_rq_size 16
itlb_wq_size 16
itlb_pq_size 0
itlb_mshr_size 8
itlb_latency 1

dtlb_set 16
dtlb_way 4
dtlb_rq_size 16
dtlb_wq_size 16
dtlb_pq_size 0
dtlb_mshr_size 8
dtlb_latency 1

stlb_set 128
stlb_way 12
stlb_rq_size 32
stlb_wq_size 32
stlb_pq_size 0
stlb_mshr_size 16
stlb_latency 8

l1i_size 32
l1i_set 64
l1i_way 8
l1i_rq_size 64
l1i_wq_size 64
l1i_pq_size 8
l1i_mshr_size 8
l1i_latency 1

l1d_size 32
l1d_set 64
l1d_way 8
l1d_rq_size 64
l1d_wq_size 64
l1d_pq_size 8
l1d_mshr_size 16
l1d_latency 4

l2c_size 512
l2c_set 1024
l2c_way 8
l2c_rq_size 32
l2c_wq_size 32
l2c_pq_size 16
l2c_mshr_size 32
l2c_latency 10

llc_size 2048
llc_set 2048
llc_way 16
llc_rq_size 32
llc_wq_size 32
llc_pq_size 32
llc_mshr_size 64
llc_latency 20

dram_channel_width 8
dram_wq_size 64
dram_rq_size 64
tRP 15
tRCD 15
tCAS 12.5
dram_dbus_turn_around_time 30
dram_write_high_wm 56
dram_write_low_wm 48
min_dram_writes_per_switch 16
dram_mtps 2400
dram_dbus_return_time 13


Heartbeat CPU  0 instructions:    1000000 cycles:     702167 heartbeat IPC: 1.42416 cumulative IPC: 1.42416 (Simulation time: 0 hr 0 min 2 sec) 
Heartbeat CPU  0 instructions:    2000000 cycles:    1404092 heartbeat IPC: 1.42465 cumulative IPC: 1.42441 (Simulation time: 0 hr 0 min 4 sec) 
Heartbeat CPU  0 instructions:    3000000 cycles:    2106232 heartbeat IPC: 1.42422 cumulative IPC: 1.42434 (Simulation time: 0 hr 0 min 6 sec) 
Heartbeat CPU  0 instructions:    4000000 cycles:    2808359 heartbeat IPC: 1.42424 cumulative IPC: 1.42432 (Simulation time: 0 hr 0 min 8 sec) 
Heartbeat CPU  0 instructions:    5000000 cycles:    3510266 heartbeat IPC: 1.42469 cumulative IPC: 1.42439 (Simulation time: 0 hr 0 min 9 sec) 
Heartbeat CPU  0 instructions:    6000000 cycles:    4212375 heartbeat IPC: 1.42428 cumulative IPC: 1.42437 (Simulation time: 0 hr 0 min 11 sec) 
Heartbeat CPU  0 instructions:    7000001 cycles:    4914631 heartbeat IPC: 1.42398 cumulative IPC: 1.42432 (Simulation time: 0 hr 0 min 13 sec) 
Heartbeat CPU  0 instructions:    8000000 cycles:    5616447 heartbeat IPC: 1.42487 cumulative IPC: 1.42439 (Simulation time: 0 hr 0 min 15 sec) 
Heartbeat CPU  0 instructions:    9000001 cycles:    6318674 heartbeat IPC: 1.42404 cumulative IPC: 1.42435 (Simulation time: 0 hr 0 min 17 sec) 
Heartbeat CPU  0 instructions:   10000000 cycles:    7020714 heartbeat IPC: 1.42442 cumulative IPC: 1.42436 (Simulation time: 0 hr 0 min 19 sec) 
Heartbeat CPU  0 instructions:   11000002 cycles:    7722674 heartbeat IPC: 1.42459 cumulative IPC: 1.42438 (Simulation time: 0 hr 0 min 21 sec) 
Heartbeat CPU  0 instructions:   12000000 cycles:    8424608 heartbeat IPC: 1.42463 cumulative IPC: 1.42440 (Simulation time: 0 hr 0 min 23 sec) 
Heartbeat CPU  0 instructions:   13000000 cycles:    9126946 heartbeat IPC: 1.42382 cumulative IPC: 1.42435 (Simulation time: 0 hr 0 min 24 sec) 
Heartbeat CPU  0 instructions:   14000002 cycles:    9829004 heartbeat IPC: 1.42439 cumulative IPC: 1.42436 (Simulation time: 0 hr 0 min 26 sec) 
Heartbeat CPU  0 instructions:   15000002 cycles:   10530694 heartbeat IPC: 1.42513 cumulative IPC: 1.42441 (Simulation time: 0 hr 0 min 28 sec) 
Heartbeat CPU  0 instructions:   16000000 cycles:   11233095 heartbeat IPC: 1.42369 cumulative IPC: 1.42436 (Simulation time: 0 hr 0 min 30 sec) 
Heartbeat CPU  0 instructions:   17000000 cycles:   11935410 heartbeat IPC: 1.42386 cumulative IPC: 1.42433 (Simulation time: 0 hr 0 min 32 sec) 
Heartbeat CPU  0 instructions:   18000001 cycles:   12594458 heartbeat IPC: 1.51734 cumulative IPC: 1.42920 (Simulation time: 0 hr 0 min 34 sec) 
Heartbeat CPU  0 instructions:   19000000 cycles:   13226742 heartbeat IPC: 1.58157 cumulative IPC: 1.43648 (Simulation time: 0 hr 0 min 35 sec) 
Heartbeat CPU  0 instructions:   20000000 cycles:   13929012 heartbeat IPC: 1.42395 cumulative IPC: 1.43585 (Simulation time: 0 hr 0 min 37 sec) 
Heartbeat CPU  0 instructions:   21000000 cycles:   14631177 heartbeat IPC: 1.42417 cumulative IPC: 1.43529 (Simulation time: 0 hr 0 min 39 sec) 
Heartbeat CPU  0 instructions:   22000002 cycles:   15333203 heartbeat IPC: 1.42445 cumulative IPC: 1.43479 (Simulation time: 0 hr 0 min 41 sec) 
Heartbeat CPU  0 instructions:   23000001 cycles:   16035332 heartbeat IPC: 1.42424 cumulative IPC: 1.43433 (Simulation time: 0 hr 0 min 43 sec) 
Heartbeat CPU  0 instructions:   24000000 cycles:   16737187 heartbeat IPC: 1.42479 cumulative IPC: 1.43393 (Simulation time: 0 hr 0 min 45 sec) 
Heartbeat CPU  0 instructions:   25000001 cycles:   17439298 heartbeat IPC: 1.42428 cumulative IPC: 1.43354 (Simulation time: 0 hr 0 min 47 sec) 
Heartbeat CPU  0 instructions:   26000003 cycles:   18141617 heartbeat IPC: 1.42386 cumulative IPC: 1.43317 (Simulation time: 0 hr 0 min 48 sec) 
Heartbeat CPU  0 instructions:   27000003 cycles:   18843584 heartbeat IPC: 1.42457 cumulative IPC: 1.43285 (Simulation time: 0 hr 0 min 50 sec) 
Heartbeat CPU  0 instructions:   28000000 cycles:   19545528 heartbeat IPC: 1.42461 cumulative IPC: 1.43255 (Simulation time: 0 hr 0 min 52 sec) 
Heartbeat CPU  0 instructions:   29000000 cycles:   20247713 heartbeat IPC: 1.42413 cumulative IPC: 1.43226 (Simulation time: 0 hr 0 min 54 sec) 
Heartbeat CPU  0 instructions:   30000003 cycles:   20949848 heartbeat IPC: 1.42423 cumulative IPC: 1.43199 (Simulation time: 0 hr 0 min 56 sec) 
Heartbeat CPU  0 instructions:   31000003 cycles:   21651535 heartbeat IPC: 1.42514 cumulative IPC: 1.43177 (Simulation time: 0 hr 0 min 58 sec) 
Heartbeat CPU  0 instructions:   32000000 cycles:   22353405 heartbeat IPC: 1.42476 cumulative IPC: 1.43155 (Simulation time: 0 hr 1 min 0 sec) 
Heartbeat CPU  0 instructions:   33000001 cycles:   23055887 heartbeat IPC: 1.42353 cumulative IPC: 1.43130 (Simulation time: 0 hr 1 min 1 sec) 
Heartbeat CPU  0 instructions:   34000000 cycles:   23757861 heartbeat IPC: 1.42455 cumulative IPC: 1.43111 (Simulation time: 0 hr 1 min 3 sec) 
Heartbeat CPU  0 instructions:   35000001 cycles:   24459752 heartbeat IPC: 1.42472 cumulative IPC: 1.43092 (Simulation time: 0 hr 1 min 5 sec) 
Heartbeat CPU  0 instructions:   36000000 cycles:   25161721 heartbeat IPC: 1.42456 cumulative IPC: 1.43074 (Simulation time: 0 hr 1 min 7 sec) 
Heartbeat CPU  0 instructions:   37000000 cycles:   25864075 heartbeat IPC: 1.42378 cumulative IPC: 1.43056 (Simulation time: 0 hr 1 min 9 sec) 
Heartbeat CPU  0 instructions:   38000001 cycles:   26566050 heartbeat IPC: 1.42455 cumulative IPC: 1.43040 (Simulation time: 0 hr 1 min 11 sec) 
Heartbeat CPU  0 instructions:   39000000 cycles:   27267974 heartbeat IPC: 1.42465 cumulative IPC: 1.43025 (Simulation time: 0 hr 1 min 13 sec) 
Heartbeat CPU  0 instructions:   40000000 cycles:   27969956 heartbeat IPC: 1.42454 cumulative IPC: 1.43011 (Simulation time: 0 hr 1 min 15 sec) 
Heartbeat CPU  0 instructions:   41000000 cycles:   28570994 heartbeat IPC: 1.66379 cumulative IPC: 1.43502 (Simulation time: 0 hr 1 min 16 sec) 
Heartbeat CPU  0 instructions:   42000002 cycles:   29261647 heartbeat IPC: 1.44791 cumulative IPC: 1.43533 (Simulation time: 0 hr 1 min 18 sec) 
Heartbeat CPU  0 instructions:   43000002 cycles:   29963809 heartbeat IPC: 1.42417 cumulative IPC: 1.43506 (Simulation time: 0 hr 1 min 20 sec) 
Heartbeat CPU  0 instructions:   44000000 cycles:   30665923 heartbeat IPC: 1.42427 cumulative IPC: 1.43482 (Simulation time: 0 hr 1 min 22 sec) 
Heartbeat CPU  0 instructions:   45000003 cycles:   31367917 heartbeat IPC: 1.42452 cumulative IPC: 1.43459 (Simulation time: 0 hr 1 min 24 sec) 
Heartbeat CPU  0 instructions:   46000003 cycles:   32069850 heartbeat IPC: 1.42464 cumulative IPC: 1.43437 (Simulation time: 0 hr 1 min 26 sec) 
Heartbeat CPU  0 instructions:   47000000 cycles:   32771813 heartbeat IPC: 1.42457 cumulative IPC: 1.43416 (Simulation time: 0 hr 1 min 27 sec) 
Heartbeat CPU  0 instructions:   48000000 cycles:   33474147 heartbeat IPC: 1.42382 cumulative IPC: 1.43394 (Simulation time: 0 hr 1 min 29 sec) 
Heartbeat CPU  0 instructions:   49000000 cycles:   34175886 heartbeat IPC: 1.42503 cumulative IPC: 1.43376 (Simulation time: 0 hr 1 min 31 sec) 
Heartbeat CPU  0 instructions:   50000000 cycles:   34877972 heartbeat IPC: 1.42433 cumulative IPC: 1.43357 (Simulation time: 0 hr 1 min 33 sec) 
Heartbeat CPU  0 instructions:   51000000 cycles:   35580246 heartbeat IPC: 1.42395 cumulative IPC: 1.43338 (Simulation time: 0 hr 1 min 35 sec) 
Heartbeat CPU  0 instructions:   52000000 cycles:   36282129 heartbeat IPC: 1.42474 cumulative IPC: 1.43321 (Simulation time: 0 hr 1 min 37 sec) 
Heartbeat CPU  0 instructions:   53000000 cycles:   36984253 heartbeat IPC: 1.42425 cumulative IPC: 1.43304 (Simulation time: 0 hr 1 min 39 sec) 
Heartbeat CPU  0 instructions:   54000001 cycles:   37686084 heartbeat IPC: 1.42485 cumulative IPC: 1.43289 (Simulation time: 0 hr 1 min 41 sec) 
Heartbeat CPU  0 instructions:   55000001 cycles:   38388107 heartbeat IPC: 1.42445 cumulative IPC: 1.43274 (Simulation time: 0 hr 1 min 42 sec) 
Heartbeat CPU  0 instructions:   56000000 cycles:   39090312 heartbeat IPC: 1.42408 cumulative IPC: 1.43258 (Simulation time: 0 hr 1 min 44 sec) 
Heartbeat CPU  0 instructions:   57000000 cycles:   39792535 heartbeat IPC: 1.42405 cumulative IPC: 1.43243 (Simulation time: 0 hr 1 min 46 sec) 
Heartbeat CPU  0 instructions:   58000003 cycles:   40494543 heartbeat IPC: 1.42449 cumulative IPC: 1.43229 (Simulation time: 0 hr 1 min 48 sec) 
Heartbeat CPU  0 instructions:   59000000 cycles:   41196429 heartbeat IPC: 1.42473 cumulative IPC: 1.43216 (Simulation time: 0 hr 1 min 50 sec) 
Heartbeat CPU  0 instructions:   60000000 cycles:   41898629 heartbeat IPC: 1.42410 cumulative IPC: 1.43203 (Simulation time: 0 hr 1 min 52 sec) 
Heartbeat CPU  0 instructions:   61000000 cycles:   42600573 heartbeat IPC: 1.42462 cumulative IPC: 1.43191 (Simulation time: 0 hr 1 min 54 sec) 
Heartbeat CPU  0 instructions:   62000002 cycles:   43302502 heartbeat IPC: 1.42465 cumulative IPC: 1.43179 (Simulation time: 0 hr 1 min 55 sec) 
Heartbeat CPU  0 instructions:   63000000 cycles:   43947324 heartbeat IPC: 1.55081 cumulative IPC: 1.43353 (Simulation time: 0 hr 1 min 57 sec) 
Heartbeat CPU  0 instructions:   64000000 cycles:   44596031 heartbeat IPC: 1.54153 cumulative IPC: 1.43511 (Simulation time: 0 hr 1 min 59 sec) 
Heartbeat CPU  0 instructions:   65000000 cycles:   45297914 heartbeat IPC: 1.42474 cumulative IPC: 1.43494 (Simulation time: 0 hr 2 min 1 sec) 
Heartbeat CPU  0 instructions:   66000001 cycles:   45999700 heartbeat IPC: 1.42494 cumulative IPC: 1.43479 (Simulation time: 0 hr 2 min 3 sec) 
Heartbeat CPU  0 instructions:   67000002 cycles:   46701568 heartbeat IPC: 1.42477 cumulative IPC: 1.43464 (Simulation time: 0 hr 2 min 5 sec) 
Heartbeat CPU  0 instructions:   68000000 cycles:   47403721 heartbeat IPC: 1.42419 cumulative IPC: 1.43449 (Simulation time: 0 hr 2 min 7 sec) 
Heartbeat CPU  0 instructions:   69000000 cycles:   48105724 heartbeat IPC: 1.42450 cumulative IPC: 1.43434 (Simulation time: 0 hr 2 min 8 sec) 
Heartbeat CPU  0 instructions:   70000002 cycles:   48807621 heartbeat IPC: 1.42471 cumulative IPC: 1.43420 (Simulation time: 0 hr 2 min 10 sec) 
Heartbeat CPU  0 instructions:   71000003 cycles:   49509988 heartbeat IPC: 1.42376 cumulative IPC: 1.43405 (Simulation time: 0 hr 2 min 12 sec) 
Heartbeat CPU  0 instructions:   72000000 cycles:   50211835 heartbeat IPC: 1.42481 cumulative IPC: 1.43392 (Simulation time: 0 hr 2 min 14 sec) 
Heartbeat CPU  0 instructions:   73000001 cycles:   50913720 heartbeat IPC: 1.42474 cumulative IPC: 1.43380 (Simulation time: 0 hr 2 min 16 sec) 
Heartbeat CPU  0 instructions:   74000003 cycles:   51615803 heartbeat IPC: 1.42434 cumulative IPC: 1.43367 (Simulation time: 0 hr 2 min 18 sec) 
Heartbeat CPU  0 instructions:   75000002 cycles:   52318219 heartbeat IPC: 1.42366 cumulative IPC: 1.43354 (Simulation time: 0 hr 2 min 20 sec) 
Heartbeat CPU  0 instructions:   76000000 cycles:   53020156 heartbeat IPC: 1.42463 cumulative IPC: 1.43342 (Simulation time: 0 hr 2 min 22 sec) 
Heartbeat CPU  0 instructions:   77000003 cycles:   53722539 heartbeat IPC: 1.42373 cumulative IPC: 1.43329 (Simulation time: 0 hr 2 min 23 sec) 
Heartbeat CPU  0 instructions:   78000001 cycles:   54424854 heartbeat IPC: 1.42386 cumulative IPC: 1.43317 (Simulation time: 0 hr 2 min 25 sec) 
Heartbeat CPU  0 instructions:   79000001 cycles:   55126521 heartbeat IPC: 1.42518 cumulative IPC: 1.43307 (Simulation time: 0 hr 2 min 27 sec) 
Heartbeat CPU  0 instructions:   80000000 cycles:   55828336 heartbeat IPC: 1.42488 cumulative IPC: 1.43296 (Simulation time: 0 hr 2 min 29 sec) 
Heartbeat CPU  0 instructions:   81000002 cycles:   56530458 heartbeat IPC: 1.42426 cumulative IPC: 1.43286 (Simulation time: 0 hr 2 min 31 sec) 
Heartbeat CPU  0 instructions:   82000003 cycles:   57232452 heartbeat IPC: 1.42452 cumulative IPC: 1.43275 (Simulation time: 0 hr 2 min 33 sec) 
Heartbeat CPU  0 instructions:   83000001 cycles:   57934503 heartbeat IPC: 1.42440 cumulative IPC: 1.43265 (Simulation time: 0 hr 2 min 35 sec) 
Heartbeat CPU  0 instructions:   84000000 cycles:   58636481 heartbeat IPC: 1.42454 cumulative IPC: 1.43256 (Simulation time: 0 hr 2 min 36 sec) 
Heartbeat CPU  0 instructions:   85000000 cycles:   59324355 heartbeat IPC: 1.45375 cumulative IPC: 1.43280 (Simulation time: 0 hr 2 min 38 sec) 
Heartbeat CPU  0 instructions:   86000002 cycles:   59929432 heartbeat IPC: 1.65269 cumulative IPC: 1.43502 (Simulation time: 0 hr 2 min 40 sec) 
Heartbeat CPU  0 instructions:   87000002 cycles:   60631676 heartbeat IPC: 1.42401 cumulative IPC: 1.43489 (Simulation time: 0 hr 2 min 42 sec) 
Heartbeat CPU  0 instructions:   88000000 cycles:   61333998 heartbeat IPC: 1.42385 cumulative IPC: 1.43477 (Simulation time: 0 hr 2 min 44 sec) 
Heartbeat CPU  0 instructions:   89000001 cycles:   62035795 heartbeat IPC: 1.42491 cumulative IPC: 1.43466 (Simulation time: 0 hr 2 min 46 sec) 
Heartbeat CPU  0 instructions:   90000003 cycles:   62737893 heartbeat IPC: 1.42431 cumulative IPC: 1.43454 (Simulation time: 0 hr 2 min 48 sec) 
Heartbeat CPU  0 instructions:   91000003 cycles:   63440040 heartbeat IPC: 1.42420 cumulative IPC: 1.43443 (Simulation time: 0 hr 2 min 49 sec) 
Heartbeat CPU  0 instructions:   92000000 cycles:   64141988 heartbeat IPC: 1.42460 cumulative IPC: 1.43432 (Simulation time: 0 hr 2 min 51 sec) 
Heartbeat CPU  0 instructions:   93000002 cycles:   64844025 heartbeat IPC: 1.42443 cumulative IPC: 1.43421 (Simulation time: 0 hr 2 min 53 sec) 
Heartbeat CPU  0 instructions:   94000002 cycles:   65545821 heartbeat IPC: 1.42492 cumulative IPC: 1.43411 (Simulation time: 0 hr 2 min 55 sec) 
Heartbeat CPU  0 instructions:   95000003 cycles:   66247744 heartbeat IPC: 1.42466 cumulative IPC: 1.43401 (Simulation time: 0 hr 2 min 57 sec) 
Heartbeat CPU  0 instructions:   96000000 cycles:   66949817 heartbeat IPC: 1.42435 cumulative IPC: 1.43391 (Simulation time: 0 hr 2 min 59 sec) 
Heartbeat CPU  0 instructions:   97000000 cycles:   67651900 heartbeat IPC: 1.42433 cumulative IPC: 1.43381 (Simulation time: 0 hr 3 min 1 sec) 
Heartbeat CPU  0 instructions:   98000002 cycles:   68353814 heartbeat IPC: 1.42468 cumulative IPC: 1.43372 (Simulation time: 0 hr 3 min 3 sec) 
Heartbeat CPU  0 instructions:   99000003 cycles:   69055771 heartbeat IPC: 1.42459 cumulative IPC: 1.43362 (Simulation time: 0 hr 3 min 4 sec) 
Heartbeat CPU  0 instructions:  100000000 cycles:   69757926 heartbeat IPC: 1.42418 cumulative IPC: 1.43353 (Simulation time: 0 hr 3 min 6 sec) 

Warmup complete CPU  0 instructions:  100000001 cycles:   69757946 (Simulation time: 0 hr 3 min 6 sec) 

Heartbeat CPU  0 instructions:  101000000 cycles:   71662422 heartbeat IPC: 0.52507 cumulative IPC: 0.52508 (Simulation time: 0 hr 3 min 8 sec) 
Heartbeat CPU  0 instructions:  102000003 cycles:   73398811 heartbeat IPC: 0.57591 cumulative IPC: 0.54932 (Simulation time: 0 hr 3 min 10 sec) 
Heartbeat CPU  0 instructions:  103000003 cycles:   75244531 heartbeat IPC: 0.54179 cumulative IPC: 0.54679 (Simulation time: 0 hr 3 min 12 sec) 
Heartbeat CPU  0 instructions:  104000000 cycles:   77138162 heartbeat IPC: 0.52808 cumulative IPC: 0.54199 (Simulation time: 0 hr 3 min 14 sec) 
Heartbeat CPU  0 instructions:  105000002 cycles:   78955256 heartbeat IPC: 0.55033 cumulative IPC: 0.54364 (Simulation time: 0 hr 3 min 17 sec) 
Heartbeat CPU  0 instructions:  106000000 cycles:   80731533 heartbeat IPC: 0.56297 cumulative IPC: 0.54677 (Simulation time: 0 hr 3 min 19 sec) 
Heartbeat CPU  0 instructions:  107000003 cycles:   82621028 heartbeat IPC: 0.52924 cumulative IPC: 0.54419 (Simulation time: 0 hr 3 min 21 sec) 
Heartbeat CPU  0 instructions:  108000000 cycles:   93343363 heartbeat IPC: 0.09326 cumulative IPC: 0.33919 (Simulation time: 0 hr 3 min 23 sec) 
Heartbeat CPU  0 instructions:  109000003 cycles:  100100882 heartbeat IPC: 0.14798 cumulative IPC: 0.29661 (Simulation time: 0 hr 3 min 25 sec) 
Heartbeat CPU  0 instructions:  110000001 cycles:  101989348 heartbeat IPC: 0.52953 cumulative IPC: 0.31026 (Simulation time: 0 hr 3 min 27 sec) 
Heartbeat CPU  0 instructions:  111000000 cycles:  103885798 heartbeat IPC: 0.52730 cumulative IPC: 0.32232 (Simulation time: 0 hr 3 min 29 sec) 
Heartbeat CPU  0 instructions:  112000000 cycles:  105630990 heartbeat IPC: 0.57300 cumulative IPC: 0.33451 (Simulation time: 0 hr 3 min 31 sec) 
Heartbeat CPU  0 instructions:  113000000 cycles:  107478935 heartbeat IPC: 0.54114 cumulative IPC: 0.34464 (Simulation time: 0 hr 3 min 34 sec) 
Heartbeat CPU  0 instructions:  114000000 cycles:  109385236 heartbeat IPC: 0.52458 cumulative IPC: 0.35329 (Simulation time: 0 hr 3 min 36 sec) 
Heartbeat CPU  0 instructions:  115000001 cycles:  111199214 heartbeat IPC: 0.55128 cumulative IPC: 0.36196 (Simulation time: 0 hr 3 min 38 sec) 
Heartbeat CPU  0 instructions:  116000000 cycles:  112972628 heartbeat IPC: 0.56388 cumulative IPC: 0.37024 (Simulation time: 0 hr 3 min 40 sec) 
Heartbeat CPU  0 instructions:  117000003 cycles:  114869670 heartbeat IPC: 0.52714 cumulative IPC: 0.37684 (Simulation time: 0 hr 3 min 42 sec) 
Heartbeat CPU  0 instructions:  118000002 cycles:  116752975 heartbeat IPC: 0.53098 cumulative IPC: 0.38302 (Simulation time: 0 hr 3 min 44 sec) 
Heartbeat CPU  0 instructions:  119000002 cycles:  118477336 heartbeat IPC: 0.57992 cumulative IPC: 0.38999 (Simulation time: 0 hr 3 min 46 sec) 
Heartbeat CPU  0 instructions:  120000000 cycles:  120361011 heartbeat IPC: 0.53088 cumulative IPC: 0.39523 (Simulation time: 0 hr 3 min 48 sec) 
Heartbeat CPU  0 instructions:  121000003 cycles:  122256000 heartbeat IPC: 0.52771 cumulative IPC: 0.40001 (Simulation time: 0 hr 3 min 50 sec) 
Heartbeat CPU  0 instructions:  122000003 cycles:  124014285 heartbeat IPC: 0.56874 cumulative IPC: 0.40548 (Simulation time: 0 hr 3 min 52 sec) 
Heartbeat CPU  0 instructions:  123000002 cycles:  125845177 heartbeat IPC: 0.54618 cumulative IPC: 0.41008 (Simulation time: 0 hr 3 min 54 sec) 
Heartbeat CPU  0 instructions:  124000000 cycles:  127743642 heartbeat IPC: 0.52674 cumulative IPC: 0.41390 (Simulation time: 0 hr 3 min 56 sec) 
Heartbeat CPU  0 instructions:  125000000 cycles:  129580643 heartbeat IPC: 0.54437 cumulative IPC: 0.41790 (Simulation time: 0 hr 3 min 58 sec) 
Heartbeat CPU  0 instructions:  126000002 cycles:  131352328 heartbeat IPC: 0.56444 cumulative IPC: 0.42212 (Simulation time: 0 hr 4 min 0 sec) 
Heartbeat CPU  0 instructions:  127000002 cycles:  133367767 heartbeat IPC: 0.49617 cumulative IPC: 0.42446 (Simulation time: 0 hr 4 min 2 sec) 
Heartbeat CPU  0 instructions:  128000000 cycles:  135254035 heartbeat IPC: 0.53015 cumulative IPC: 0.42751 (Simulation time: 0 hr 4 min 5 sec) 
Heartbeat CPU  0 instructions:  129000001 cycles:  136975515 heartbeat IPC: 0.58090 cumulative IPC: 0.43143 (Simulation time: 0 hr 4 min 7 sec) 
Heartbeat CPU  0 instructions:  130000000 cycles:  142473982 heartbeat IPC: 0.18187 cumulative IPC: 0.41256 (Simulation time: 0 hr 4 min 9 sec) 
Heartbeat CPU  0 instructions:  131000003 cycles:  154572222 heartbeat IPC: 0.08266 cumulative IPC: 0.36550 (Simulation time: 0 hr 4 min 11 sec) 
Heartbeat CPU  0 instructions:  132000000 cycles:  156333553 heartbeat IPC: 0.56775 cumulative IPC: 0.36962 (Simulation time: 0 hr 4 min 13 sec) 
Heartbeat CPU  0 instructions:  133000000 cycles:  158167709 heartbeat IPC: 0.54521 cumulative IPC: 0.37326 (Simulation time: 0 hr 4 min 15 sec) 
Heartbeat CPU  0 instructions:  134000000 cycles:  160065859 heartbeat IPC: 0.52683 cumulative IPC: 0.37649 (Simulation time: 0 hr 4 min 17 sec) 
Heartbeat CPU  0 instructions:  135000000 cycles:  161899861 heartbeat IPC: 0.54526 cumulative IPC: 0.37985 (Simulation time: 0 hr 4 min 19 sec) 
Heartbeat CPU  0 instructions:  136000000 cycles:  163659618 heartbeat IPC: 0.56826 cumulative IPC: 0.38338 (Simulation time: 0 hr 4 min 22 sec) 
Heartbeat CPU  0 instructions:  137000002 cycles:  165557451 heartbeat IPC: 0.52692 cumulative IPC: 0.38622 (Simulation time: 0 hr 4 min 24 sec) 
Heartbeat CPU  0 instructions:  138000001 cycles:  167446486 heartbeat IPC: 0.52937 cumulative IPC: 0.38899 (Simulation time: 0 hr 4 min 26 sec) 
Heartbeat CPU  0 instructions:  139000001 cycles:  169168587 heartbeat IPC: 0.58069 cumulative IPC: 0.39231 (Simulation time: 0 hr 4 min 28 sec) 
Heartbeat CPU  0 instructions:  140000000 cycles:  171056025 heartbeat IPC: 0.52982 cumulative IPC: 0.39487 (Simulation time: 0 hr 4 min 30 sec) 
Heartbeat CPU  0 instructions:  141000000 cycles:  172954681 heartbeat IPC: 0.52669 cumulative IPC: 0.39730 (Simulation time: 0 hr 4 min 32 sec) 
Heartbeat CPU  0 instructions:  142000001 cycles:  174728831 heartbeat IPC: 0.56365 cumulative IPC: 0.40011 (Simulation time: 0 hr 4 min 34 sec) 
Heartbeat CPU  0 instructions:  143000001 cycles:  176544786 heartbeat IPC: 0.55067 cumulative IPC: 0.40267 (Simulation time: 0 hr 4 min 36 sec) 
Heartbeat CPU  0 instructions:  144000000 cycles:  178444291 heartbeat IPC: 0.52645 cumulative IPC: 0.40483 (Simulation time: 0 hr 4 min 38 sec) 
Heartbeat CPU  0 instructions:  145000000 cycles:  180297850 heartbeat IPC: 0.53950 cumulative IPC: 0.40709 (Simulation time: 0 hr 4 min 40 sec) 
Heartbeat CPU  0 instructions:  146000002 cycles:  182042693 heartbeat IPC: 0.57312 cumulative IPC: 0.40967 (Simulation time: 0 hr 4 min 42 sec) 
Heartbeat CPU  0 instructions:  147000003 cycles:  183937872 heartbeat IPC: 0.52766 cumulative IPC: 0.41163 (Simulation time: 0 hr 4 min 44 sec) 
Heartbeat CPU  0 instructions:  148000000 cycles:  185826875 heartbeat IPC: 0.52938 cumulative IPC: 0.41355 (Simulation time: 0 hr 4 min 46 sec) 
Heartbeat CPU  0 instructions:  149000002 cycles:  187556145 heartbeat IPC: 0.57828 cumulative IPC: 0.41597 (Simulation time: 0 hr 4 min 48 sec) 
Heartbeat CPU  0 instructions:  150000003 cycles:  189429771 heartbeat IPC: 0.53372 cumulative IPC: 0.41781 (Simulation time: 0 hr 4 min 50 sec) 
Heartbeat CPU  0 instructions:  151000003 cycles:  191322831 heartbeat IPC: 0.52825 cumulative IPC: 0.41953 (Simulation time: 0 hr 4 min 53 sec) 
Heartbeat CPU  0 instructions:  152000000 cycles:  193127875 heartbeat IPC: 0.55400 cumulative IPC: 0.42150 (Simulation time: 0 hr 4 min 55 sec) 
Heartbeat CPU  0 instructions:  153000003 cycles:  205932729 heartbeat IPC: 0.07810 cumulative IPC: 0.38921 (Simulation time: 0 hr 4 min 57 sec) 
Heartbeat CPU  0 instructions:  154000000 cycles:  210871608 heartbeat IPC: 0.20247 cumulative IPC: 0.38267 (Simulation time: 0 hr 4 min 59 sec) 
Heartbeat CPU  0 instructions:  155000000 cycles:  212725077 heartbeat IPC: 0.53953 cumulative IPC: 0.38470 (Simulation time: 0 hr 5 min 1 sec) 
Heartbeat CPU  0 instructions:  156000000 cycles:  214465411 heartbeat IPC: 0.57460 cumulative IPC: 0.38699 (Simulation time: 0 hr 5 min 3 sec) 
Heartbeat CPU  0 instructions:  157000001 cycles:  216360037 heartbeat IPC: 0.52781 cumulative IPC: 0.38881 (Simulation time: 0 hr 5 min 5 sec) 
Heartbeat CPU  0 instructions:  158000001 cycles:  218250319 heartbeat IPC: 0.52902 cumulative IPC: 0.39059 (Simulation time: 0 hr 5 min 7 sec) 
Heartbeat CPU  0 instructions:  159000000 cycles:  219977313 heartbeat IPC: 0.57904 cumulative IPC: 0.39276 (Simulation time: 0 hr 5 min 9 sec) 
Heartbeat CPU  0 instructions:  160000000 cycles:  221853937 heartbeat IPC: 0.53287 cumulative IPC: 0.39449 (Simulation time: 0 hr 5 min 12 sec) 
Heartbeat CPU  0 instructions:  161000003 cycles:  223753394 heartbeat IPC: 0.52647 cumulative IPC: 0.39612 (Simulation time: 0 hr 5 min 14 sec) 
Heartbeat CPU  0 instructions:  162000000 cycles:  225545614 heartbeat IPC: 0.55797 cumulative IPC: 0.39798 (Simulation time: 0 hr 5 min 16 sec) 
Heartbeat CPU  0 instructions:  163000003 cycles:  227346748 heartbeat IPC: 0.55521 cumulative IPC: 0.39977 (Simulation time: 0 hr 5 min 18 sec) 
Heartbeat CPU  0 instructions:  164000000 cycles:  229241815 heartbeat IPC: 0.52768 cumulative IPC: 0.40129 (Simulation time: 0 hr 5 min 20 sec) 
Heartbeat CPU  0 instructions:  165000000 cycles:  231119623 heartbeat IPC: 0.53254 cumulative IPC: 0.40282 (Simulation time: 0 hr 5 min 22 sec) 
Heartbeat CPU  0 instructions:  166000001 cycles:  232845530 heartbeat IPC: 0.57941 cumulative IPC: 0.40469 (Simulation time: 0 hr 5 min 24 sec) 
Heartbeat CPU  0 instructions:  167000000 cycles:  234737599 heartbeat IPC: 0.52852 cumulative IPC: 0.40611 (Simulation time: 0 hr 5 min 26 sec) 
Heartbeat CPU  0 instructions:  168000000 cycles:  236631122 heartbeat IPC: 0.52812 cumulative IPC: 0.40750 (Simulation time: 0 hr 5 min 28 sec) 
Heartbeat CPU  0 instructions:  169000001 cycles:  238367525 heartbeat IPC: 0.57590 cumulative IPC: 0.40923 (Simulation time: 0 hr 5 min 30 sec) 
Heartbeat CPU  0 instructions:  170000002 cycles:  240224328 heartbeat IPC: 0.53856 cumulative IPC: 0.41064 (Simulation time: 0 hr 5 min 32 sec) 
Heartbeat CPU  0 instructions:  171000001 cycles:  242124755 heartbeat IPC: 0.52620 cumulative IPC: 0.41191 (Simulation time: 0 hr 5 min 34 sec) 
Heartbeat CPU  0 instructions:  172000000 cycles:  243935293 heartbeat IPC: 0.55232 cumulative IPC: 0.41337 (Simulation time: 0 hr 5 min 36 sec) 
Heartbeat CPU  0 instructions:  173000000 cycles:  245718370 heartbeat IPC: 0.56083 cumulative IPC: 0.41487 (Simulation time: 0 hr 5 min 38 sec) 
Heartbeat CPU  0 instructions:  174000003 cycles:  247616682 heartbeat IPC: 0.52679 cumulative IPC: 0.41606 (Simulation time: 0 hr 5 min 40 sec) 
Heartbeat CPU  0 instructions:  175000000 cycles:  254780279 heartbeat IPC: 0.13959 cumulative IPC: 0.40536 (Simulation time: 0 hr 5 min 43 sec) 
Heartbeat CPU  0 instructions:  176000000 cycles:  265058498 heartbeat IPC: 0.09729 cumulative IPC: 0.38914 (Simulation time: 0 hr 5 min 45 sec) 
Heartbeat CPU  0 instructions:  177000001 cycles:  267022185 heartbeat IPC: 0.50925 cumulative IPC: 0.39034 (Simulation time: 0 hr 5 min 47 sec) 
Heartbeat CPU  0 instructions:  178000003 cycles:  269069599 heartbeat IPC: 0.48842 cumulative IPC: 0.39135 (Simulation time: 0 hr 5 min 49 sec) 
Heartbeat CPU  0 instructions:  179000002 cycles:  270975030 heartbeat IPC: 0.52482 cumulative IPC: 0.39261 (Simulation time: 0 hr 5 min 51 sec) 
Heartbeat CPU  0 instructions:  180000000 cycles:  272859530 heartbeat IPC: 0.53064 cumulative IPC: 0.39389 (Simulation time: 0 hr 5 min 53 sec) 
Heartbeat CPU  0 instructions:  181000003 cycles:  274772110 heartbeat IPC: 0.52286 cumulative IPC: 0.39509 (Simulation time: 0 hr 5 min 55 sec) 
Heartbeat CPU  0 instructions:  182000003 cycles:  276600234 heartbeat IPC: 0.54701 cumulative IPC: 0.39644 (Simulation time: 0 hr 5 min 57 sec) 
Heartbeat CPU  0 instructions:  183000000 cycles:  278411451 heartbeat IPC: 0.55211 cumulative IPC: 0.39779 (Simulation time: 0 hr 5 min 59 sec) 
Heartbeat CPU  0 instructions:  184000000 cycles:  280322421 heartbeat IPC: 0.52329 cumulative IPC: 0.39893 (Simulation time: 0 hr 6 min 2 sec) 
Heartbeat CPU  0 instructions:  185000002 cycles:  282222882 heartbeat IPC: 0.52619 cumulative IPC: 0.40007 (Simulation time: 0 hr 6 min 4 sec) 
Heartbeat CPU  0 instructions:  186000001 cycles:  283982463 heartbeat IPC: 0.56832 cumulative IPC: 0.40145 (Simulation time: 0 hr 6 min 6 sec) 
Heartbeat CPU  0 instructions:  187000000 cycles:  285881771 heartbeat IPC: 0.52651 cumulative IPC: 0.40255 (Simulation time: 0 hr 6 min 8 sec) 
Heartbeat CPU  0 instructions:  188000000 cycles:  287794355 heartbeat IPC: 0.52285 cumulative IPC: 0.40360 (Simulation time: 0 hr 6 min 10 sec) 
Heartbeat CPU  0 instructions:  189000000 cycles:  289566279 heartbeat IPC: 0.56436 cumulative IPC: 0.40490 (Simulation time: 0 hr 6 min 12 sec) 
Heartbeat CPU  0 instructions:  190000000 cycles:  291435257 heartbeat IPC: 0.53505 cumulative IPC: 0.40600 (Simulation time: 0 hr 6 min 14 sec) 
Heartbeat CPU  0 instructions:  191000000 cycles:  293348193 heartbeat IPC: 0.52276 cumulative IPC: 0.40699 (Simulation time: 0 hr 6 min 16 sec) 
Heartbeat CPU  0 instructions:  192000000 cycles:  295192221 heartbeat IPC: 0.54229 cumulative IPC: 0.40810 (Simulation time: 0 hr 6 min 18 sec) 
Heartbeat CPU  0 instructions:  193000001 cycles:  296989126 heartbeat IPC: 0.55651 cumulative IPC: 0.40927 (Simulation time: 0 hr 6 min 20 sec) 
Heartbeat CPU  0 instructions:  194000000 cycles:  298903408 heartbeat IPC: 0.52239 cumulative IPC: 0.41022 (Simulation time: 0 hr 6 min 22 sec) 
Heartbeat CPU  0 instructions:  195000002 cycles:  300803331 heartbeat IPC: 0.52634 cumulative IPC: 0.41117 (Simulation time: 0 hr 6 min 24 sec) 
Heartbeat CPU  0 instructions:  196000000 cycles:  302558602 heartbeat IPC: 0.56971 cumulative IPC: 0.41237 (Simulation time: 0 hr 6 min 26 sec) 
Heartbeat CPU  0 instructions:  197000000 cycles:  304568413 heartbeat IPC: 0.49756 cumulative IPC: 0.41310 (Simulation time: 0 hr 6 min 28 sec) 
Heartbeat CPU  0 instructions:  198000003 cycles:  318863558 heartbeat IPC: 0.06995 cumulative IPC: 0.39341 (Simulation time: 0 hr 6 min 31 sec) 
Heartbeat CPU  0 instructions:  199000001 cycles:  321972822 heartbeat IPC: 0.32162 cumulative IPC: 0.39252 (Simulation time: 0 hr 6 min 33 sec) 
Heartbeat CPU  0 instructions:  200000000 cycles:  323844577 heartbeat IPC: 0.53426 cumulative IPC: 0.39357 (Simulation time: 0 hr 6 min 35 sec) 
Finished CPU 0 instructions: 100000000 cycles: 254086659 cumulative IPC: 0.39357 (Simulation time: 0 hr 6 min 35 sec) 

ChampSim completed all CPUs

[ROI Statistics]
Core_0_instructions 100000000
Core_0_cycles 254086659
Core_0_IPC 0.39357

Core_0_branch_prediction_accuracy 99.16976
Core_0_branch_MPKI 0.01138
Core_0_average_ROB_occupancy_at_mispredict 253.39104

Core_0_L1D_total_access 83725050
Core_0_L1D_total_hit 82880168
Core_0_L1D_total_miss 844882
Core_0_L1D_loads 34101389
Core_0_L1D_load_hit 34070880
Core_0_L1D_load_miss 30509
Core_0_L1D_RFOs 16665194
Core_0_L1D_RFO_hit 16500667
Core_0_L1D_RFO_miss 164527
Core_0_L1D_prefetches 32958467
Core_0_L1D_prefetch_hit 32308621
Core_0_L1D_prefetch_miss 649846
Core_0_L1D_writebacks 0
Core_0_L1D_writeback_hit 0
Core_0_L1D_writeback_miss 0
Core_0_L1D_prefetch_requested 81149599
Core_0_L1D_prefetch_issued 78619915
Core_0_L1D_prefetch_useful 1250454
Core_0_L1D_prefetch_useless 38002
Core_0_L1D_prefetch_late 1535
Core_0_L1D_average_miss_latency 369993.14642

Core_0_L1I_total_access 26515416
Core_0_L1I_total_hit 26515416
Core_0_L1I_total_miss 0
Core_0_L1I_loads 26515416
Core_0_L1I_load_hit 26515416
Core_0_L1I_load_miss 0
Core_0_L1I_RFOs 0
Core_0_L1I_RFO_hit 0
Core_0_L1I_RFO_miss 0
Core_0_L1I_prefetches 0
Core_0_L1I_prefetch_hit 0
Core_0_L1I_prefetch_miss 0
Core_0_L1I_writebacks 0
Core_0_L1I_writeback_hit 0
Core_0_L1I_writeback_miss 0
Core_0_L1I_prefetch_requested 0
Core_0_L1I_prefetch_issued 0
Core_0_L1I_prefetch_useful 0
Core_0_L1I_prefetch_useless 0
Core_0_L1I_prefetch_late 0
Core_0_L1I_average_miss_latency -nan

Core_0_L2C_total_access 2644817
Core_0_L2C_total_hit 2101235
Core_0_L2C_total_miss 543582
Core_0_L2C_loads 29002
Core_0_L2C_load_hit 22644
Core_0_L2C_load_miss 6358
Core_0_L2C_RFOs 164432
Core_0_L2C_RFO_hit 351
Core_0_L2C_RFO_miss 164081
Core_0_L2C_prefetches 2281040
Core_0_L2C_prefetch_hit 1908108
Core_0_L2C_prefetch_miss 372932
Core_0_L2C_writebacks 170343
Core_0_L2C_writeback_hit 170132
Core_0_L2C_writeback_miss 211
Core_0_L2C_prefetch_requested 3367089
Core_0_L2C_prefetch_issued 3224170
Core_0_L2C_prefetch_useful 14392
Core_0_L2C_prefetch_useless 705254
Core_0_L2C_prefetch_late 0
Core_0_L2C_average_miss_latency 187.58327

Core_0_LLC_total_access 1017603
Core_0_LLC_total_hit 462060
Core_0_LLC_total_miss 555543
Core_0_LLC_loads 6358
Core_0_LLC_load_hit 113
Core_0_LLC_load_miss 6245
Core_0_LLC_RFOs 164081
Core_0_LLC_RFO_hit 1143
Core_0_LLC_RFO_miss 162938
Core_0_LLC_prefetches 683303
Core_0_LLC_prefetch_hit 310243
Core_0_LLC_prefetch_miss 373060
Core_0_LLC_writebacks 163861
Core_0_LLC_writeback_hit 150561
Core_0_LLC_writeback_miss 13300
Core_0_LLC_prefetch_requested 712238
Core_0_LLC_prefetch_issued 700959
Core_0_LLC_prefetch_useful 2698
Core_0_LLC_prefetch_useless 700611
Core_0_LLC_prefetch_late 0
Core_0_LLC_average_miss_latency 244.47580

Core_0_major_page_fault 0
Core_0_minor_page_fault 8761

CPU 0 L1D next line prefetcher final stats
CPU 0 L2C PC-based stride prefetcher final stats
LLC Next Line Prefetcher Final Stats: none
Channel_0_RQ_row_buffer_hit 140693
Channel_0_RQ_row_buffer_miss 401550
Channel_0_WQ_row_buffer_hit 18868
Channel_0_WQ_row_buffer_miss 139450
Channel_0_WQ_full 0
Channel_0_dbus_congested 215836

avg_congested_cycle 10
