*************************************************
   ChampSim Multicore Out-of-Order Simulator
   Last compiled: Dec 22 2023 18:30:52
*************************************************

trace_0 ./test_trace/436.cactusADM-1804B.champsimtrace.xz
CPU 0 L1D next line prefetcher
CPU 0 L2C next line prefetcher
Initialize SRRIP state
LLC Next Line Prefetcher
warmup_instructions 100000000
simulation_instructions 100000000
champsim_seed 271

num_cpus 1
cpu_freq 4000
dram_io_freq 2400
page_size 4096
block_size 64
max_read_per_cycle 8
max_fill_per_cycle 1
dram_channels 1
dram_ranks 1
dram_banks 8
dram_rows 65536
dram_columns 128
dram_row_size 8
dram_size 4096
dram_pages 1048576

fetch_width 6
decode_width 6
exec_width 4
lq_width 2
sq_width 2
retire_width 4
scheduler_size 128
branch_mispredict_penalty 20
rob_size 256
lq_size 72
sq_size 56
num_instr_destinations_sparc 4
num_instr_destinations 2
num_instr_sources 4

itlb_set 16
itlb_way 8
itlb_rq_size 16
itlb_wq_size 16
itlb_pq_size 0
itlb_mshr_size 8
itlb_latency 1

dtlb_set 16
dtlb_way 4
dtlb_rq_size 16
dtlb_wq_size 16
dtlb_pq_size 0
dtlb_mshr_size 8
dtlb_latency 1

stlb_set 128
stlb_way 12
stlb_rq_size 32
stlb_wq_size 32
stlb_pq_size 0
stlb_mshr_size 16
stlb_latency 8

l1i_size 32
l1i_set 64
l1i_way 8
l1i_rq_size 64
l1i_wq_size 64
l1i_pq_size 8
l1i_mshr_size 8
l1i_latency 1

l1d_size 32
l1d_set 64
l1d_way 8
l1d_rq_size 64
l1d_wq_size 64
l1d_pq_size 8
l1d_mshr_size 16
l1d_latency 4

l2c_size 512
l2c_set 1024
l2c_way 8
l2c_rq_size 32
l2c_wq_size 32
l2c_pq_size 16
l2c_mshr_size 32
l2c_latency 10

llc_size 2048
llc_set 2048
llc_way 16
llc_rq_size 32
llc_wq_size 32
llc_pq_size 32
llc_mshr_size 64
llc_latency 20

dram_channel_width 8
dram_wq_size 64
dram_rq_size 64
tRP 15
tRCD 15
tCAS 12.5
dram_dbus_turn_around_time 30
dram_write_high_wm 56
dram_write_low_wm 48
min_dram_writes_per_switch 16
dram_mtps 2400
dram_dbus_return_time 13


Heartbeat CPU  0 instructions:    1000000 cycles:     702149 heartbeat IPC: 1.42420 cumulative IPC: 1.42420 (Simulation time: 0 hr 0 min 2 sec) 
Heartbeat CPU  0 instructions:    2000000 cycles:    1404072 heartbeat IPC: 1.42466 cumulative IPC: 1.42443 (Simulation time: 0 hr 0 min 4 sec) 
Heartbeat CPU  0 instructions:    3000000 cycles:    2106212 heartbeat IPC: 1.42422 cumulative IPC: 1.42436 (Simulation time: 0 hr 0 min 6 sec) 
Heartbeat CPU  0 instructions:    4000000 cycles:    2808343 heartbeat IPC: 1.42424 cumulative IPC: 1.42433 (Simulation time: 0 hr 0 min 8 sec) 
Heartbeat CPU  0 instructions:    5000000 cycles:    3510248 heartbeat IPC: 1.42469 cumulative IPC: 1.42440 (Simulation time: 0 hr 0 min 10 sec) 
Heartbeat CPU  0 instructions:    6000000 cycles:    4212356 heartbeat IPC: 1.42428 cumulative IPC: 1.42438 (Simulation time: 0 hr 0 min 11 sec) 
Heartbeat CPU  0 instructions:    7000001 cycles:    4914608 heartbeat IPC: 1.42399 cumulative IPC: 1.42433 (Simulation time: 0 hr 0 min 13 sec) 
Heartbeat CPU  0 instructions:    8000000 cycles:    5616424 heartbeat IPC: 1.42487 cumulative IPC: 1.42439 (Simulation time: 0 hr 0 min 15 sec) 
Heartbeat CPU  0 instructions:    9000001 cycles:    6318650 heartbeat IPC: 1.42404 cumulative IPC: 1.42436 (Simulation time: 0 hr 0 min 17 sec) 
Heartbeat CPU  0 instructions:   10000000 cycles:    7020685 heartbeat IPC: 1.42443 cumulative IPC: 1.42436 (Simulation time: 0 hr 0 min 19 sec) 
Heartbeat CPU  0 instructions:   11000002 cycles:    7722647 heartbeat IPC: 1.42458 cumulative IPC: 1.42438 (Simulation time: 0 hr 0 min 20 sec) 
Heartbeat CPU  0 instructions:   12000000 cycles:    8424580 heartbeat IPC: 1.42463 cumulative IPC: 1.42440 (Simulation time: 0 hr 0 min 22 sec) 
Heartbeat CPU  0 instructions:   13000000 cycles:    9126919 heartbeat IPC: 1.42381 cumulative IPC: 1.42436 (Simulation time: 0 hr 0 min 24 sec) 
Heartbeat CPU  0 instructions:   14000002 cycles:    9828976 heartbeat IPC: 1.42439 cumulative IPC: 1.42436 (Simulation time: 0 hr 0 min 26 sec) 
Heartbeat CPU  0 instructions:   15000002 cycles:   10530662 heartbeat IPC: 1.42514 cumulative IPC: 1.42441 (Simulation time: 0 hr 0 min 28 sec) 
Heartbeat CPU  0 instructions:   16000000 cycles:   11233064 heartbeat IPC: 1.42368 cumulative IPC: 1.42437 (Simulation time: 0 hr 0 min 29 sec) 
Heartbeat CPU  0 instructions:   17000000 cycles:   11935379 heartbeat IPC: 1.42386 cumulative IPC: 1.42434 (Simulation time: 0 hr 0 min 31 sec) 
Heartbeat CPU  0 instructions:   18000001 cycles:   12594488 heartbeat IPC: 1.51720 cumulative IPC: 1.42920 (Simulation time: 0 hr 0 min 33 sec) 
Heartbeat CPU  0 instructions:   19000000 cycles:   13226839 heartbeat IPC: 1.58140 cumulative IPC: 1.43647 (Simulation time: 0 hr 0 min 35 sec) 
Heartbeat CPU  0 instructions:   20000000 cycles:   13929102 heartbeat IPC: 1.42397 cumulative IPC: 1.43584 (Simulation time: 0 hr 0 min 37 sec) 
Heartbeat CPU  0 instructions:   21000000 cycles:   14631262 heartbeat IPC: 1.42418 cumulative IPC: 1.43528 (Simulation time: 0 hr 0 min 38 sec) 
Heartbeat CPU  0 instructions:   22000002 cycles:   15333290 heartbeat IPC: 1.42445 cumulative IPC: 1.43479 (Simulation time: 0 hr 0 min 40 sec) 
Heartbeat CPU  0 instructions:   23000001 cycles:   16035417 heartbeat IPC: 1.42424 cumulative IPC: 1.43433 (Simulation time: 0 hr 0 min 42 sec) 
Heartbeat CPU  0 instructions:   24000000 cycles:   16737273 heartbeat IPC: 1.42479 cumulative IPC: 1.43393 (Simulation time: 0 hr 0 min 44 sec) 
Heartbeat CPU  0 instructions:   25000001 cycles:   17439381 heartbeat IPC: 1.42428 cumulative IPC: 1.43354 (Simulation time: 0 hr 0 min 46 sec) 
Heartbeat CPU  0 instructions:   26000003 cycles:   18141696 heartbeat IPC: 1.42387 cumulative IPC: 1.43316 (Simulation time: 0 hr 0 min 48 sec) 
Heartbeat CPU  0 instructions:   27000003 cycles:   18843661 heartbeat IPC: 1.42457 cumulative IPC: 1.43284 (Simulation time: 0 hr 0 min 49 sec) 
Heartbeat CPU  0 instructions:   28000000 cycles:   19545591 heartbeat IPC: 1.42464 cumulative IPC: 1.43255 (Simulation time: 0 hr 0 min 51 sec) 
Heartbeat CPU  0 instructions:   29000000 cycles:   20247774 heartbeat IPC: 1.42413 cumulative IPC: 1.43226 (Simulation time: 0 hr 0 min 53 sec) 
Heartbeat CPU  0 instructions:   30000003 cycles:   20949910 heartbeat IPC: 1.42423 cumulative IPC: 1.43199 (Simulation time: 0 hr 0 min 55 sec) 
Heartbeat CPU  0 instructions:   31000003 cycles:   21651600 heartbeat IPC: 1.42513 cumulative IPC: 1.43176 (Simulation time: 0 hr 0 min 57 sec) 
Heartbeat CPU  0 instructions:   32000000 cycles:   22353470 heartbeat IPC: 1.42476 cumulative IPC: 1.43155 (Simulation time: 0 hr 0 min 58 sec) 
Heartbeat CPU  0 instructions:   33000001 cycles:   23055950 heartbeat IPC: 1.42353 cumulative IPC: 1.43130 (Simulation time: 0 hr 1 min 0 sec) 
Heartbeat CPU  0 instructions:   34000000 cycles:   23757919 heartbeat IPC: 1.42456 cumulative IPC: 1.43110 (Simulation time: 0 hr 1 min 2 sec) 
Heartbeat CPU  0 instructions:   35000001 cycles:   24459808 heartbeat IPC: 1.42473 cumulative IPC: 1.43092 (Simulation time: 0 hr 1 min 4 sec) 
Heartbeat CPU  0 instructions:   36000000 cycles:   25161778 heartbeat IPC: 1.42456 cumulative IPC: 1.43074 (Simulation time: 0 hr 1 min 6 sec) 
Heartbeat CPU  0 instructions:   37000000 cycles:   25864127 heartbeat IPC: 1.42379 cumulative IPC: 1.43055 (Simulation time: 0 hr 1 min 8 sec) 
Heartbeat CPU  0 instructions:   38000001 cycles:   26566103 heartbeat IPC: 1.42455 cumulative IPC: 1.43039 (Simulation time: 0 hr 1 min 9 sec) 
Heartbeat CPU  0 instructions:   39000000 cycles:   27268029 heartbeat IPC: 1.42465 cumulative IPC: 1.43025 (Simulation time: 0 hr 1 min 11 sec) 
Heartbeat CPU  0 instructions:   40000000 cycles:   27970014 heartbeat IPC: 1.42453 cumulative IPC: 1.43010 (Simulation time: 0 hr 1 min 13 sec) 
Heartbeat CPU  0 instructions:   41000000 cycles:   28571191 heartbeat IPC: 1.66340 cumulative IPC: 1.43501 (Simulation time: 0 hr 1 min 15 sec) 
Heartbeat CPU  0 instructions:   42000002 cycles:   29261873 heartbeat IPC: 1.44785 cumulative IPC: 1.43531 (Simulation time: 0 hr 1 min 17 sec) 
Heartbeat CPU  0 instructions:   43000002 cycles:   29964033 heartbeat IPC: 1.42418 cumulative IPC: 1.43505 (Simulation time: 0 hr 1 min 18 sec) 
Heartbeat CPU  0 instructions:   44000000 cycles:   30666149 heartbeat IPC: 1.42426 cumulative IPC: 1.43481 (Simulation time: 0 hr 1 min 20 sec) 
Heartbeat CPU  0 instructions:   45000003 cycles:   31368142 heartbeat IPC: 1.42452 cumulative IPC: 1.43458 (Simulation time: 0 hr 1 min 22 sec) 
Heartbeat CPU  0 instructions:   46000003 cycles:   32070067 heartbeat IPC: 1.42465 cumulative IPC: 1.43436 (Simulation time: 0 hr 1 min 24 sec) 
Heartbeat CPU  0 instructions:   47000000 cycles:   32772023 heartbeat IPC: 1.42459 cumulative IPC: 1.43415 (Simulation time: 0 hr 1 min 26 sec) 
Heartbeat CPU  0 instructions:   48000000 cycles:   33474358 heartbeat IPC: 1.42382 cumulative IPC: 1.43393 (Simulation time: 0 hr 1 min 28 sec) 
Heartbeat CPU  0 instructions:   49000000 cycles:   34176097 heartbeat IPC: 1.42503 cumulative IPC: 1.43375 (Simulation time: 0 hr 1 min 29 sec) 
Heartbeat CPU  0 instructions:   50000000 cycles:   34878179 heartbeat IPC: 1.42434 cumulative IPC: 1.43356 (Simulation time: 0 hr 1 min 31 sec) 
Heartbeat CPU  0 instructions:   51000000 cycles:   35580453 heartbeat IPC: 1.42395 cumulative IPC: 1.43337 (Simulation time: 0 hr 1 min 33 sec) 
Heartbeat CPU  0 instructions:   52000000 cycles:   36282330 heartbeat IPC: 1.42475 cumulative IPC: 1.43320 (Simulation time: 0 hr 1 min 35 sec) 
Heartbeat CPU  0 instructions:   53000000 cycles:   36984450 heartbeat IPC: 1.42426 cumulative IPC: 1.43303 (Simulation time: 0 hr 1 min 37 sec) 
Heartbeat CPU  0 instructions:   54000001 cycles:   37686281 heartbeat IPC: 1.42485 cumulative IPC: 1.43288 (Simulation time: 0 hr 1 min 38 sec) 
Heartbeat CPU  0 instructions:   55000001 cycles:   38388289 heartbeat IPC: 1.42449 cumulative IPC: 1.43273 (Simulation time: 0 hr 1 min 40 sec) 
Heartbeat CPU  0 instructions:   56000000 cycles:   39090492 heartbeat IPC: 1.42409 cumulative IPC: 1.43257 (Simulation time: 0 hr 1 min 42 sec) 
Heartbeat CPU  0 instructions:   57000000 cycles:   39792715 heartbeat IPC: 1.42405 cumulative IPC: 1.43242 (Simulation time: 0 hr 1 min 44 sec) 
Heartbeat CPU  0 instructions:   58000003 cycles:   40494720 heartbeat IPC: 1.42450 cumulative IPC: 1.43229 (Simulation time: 0 hr 1 min 46 sec) 
Heartbeat CPU  0 instructions:   59000000 cycles:   41196608 heartbeat IPC: 1.42472 cumulative IPC: 1.43216 (Simulation time: 0 hr 1 min 48 sec) 
Heartbeat CPU  0 instructions:   60000000 cycles:   41898808 heartbeat IPC: 1.42410 cumulative IPC: 1.43202 (Simulation time: 0 hr 1 min 49 sec) 
Heartbeat CPU  0 instructions:   61000000 cycles:   42600745 heartbeat IPC: 1.42463 cumulative IPC: 1.43190 (Simulation time: 0 hr 1 min 51 sec) 
Heartbeat CPU  0 instructions:   62000002 cycles:   43302672 heartbeat IPC: 1.42465 cumulative IPC: 1.43178 (Simulation time: 0 hr 1 min 53 sec) 
Heartbeat CPU  0 instructions:   63000000 cycles:   43947593 heartbeat IPC: 1.55057 cumulative IPC: 1.43353 (Simulation time: 0 hr 1 min 55 sec) 
Heartbeat CPU  0 instructions:   64000000 cycles:   44596403 heartbeat IPC: 1.54128 cumulative IPC: 1.43509 (Simulation time: 0 hr 1 min 57 sec) 
Heartbeat CPU  0 instructions:   65000000 cycles:   45298282 heartbeat IPC: 1.42475 cumulative IPC: 1.43493 (Simulation time: 0 hr 1 min 58 sec) 
Heartbeat CPU  0 instructions:   66000001 cycles:   46000068 heartbeat IPC: 1.42494 cumulative IPC: 1.43478 (Simulation time: 0 hr 2 min 0 sec) 
Heartbeat CPU  0 instructions:   67000002 cycles:   46701933 heartbeat IPC: 1.42478 cumulative IPC: 1.43463 (Simulation time: 0 hr 2 min 2 sec) 
Heartbeat CPU  0 instructions:   68000000 cycles:   47404084 heartbeat IPC: 1.42419 cumulative IPC: 1.43448 (Simulation time: 0 hr 2 min 4 sec) 
Heartbeat CPU  0 instructions:   69000000 cycles:   48106087 heartbeat IPC: 1.42450 cumulative IPC: 1.43433 (Simulation time: 0 hr 2 min 6 sec) 
Heartbeat CPU  0 instructions:   70000002 cycles:   48807984 heartbeat IPC: 1.42471 cumulative IPC: 1.43419 (Simulation time: 0 hr 2 min 8 sec) 
Heartbeat CPU  0 instructions:   71000003 cycles:   49510351 heartbeat IPC: 1.42376 cumulative IPC: 1.43404 (Simulation time: 0 hr 2 min 9 sec) 
Heartbeat CPU  0 instructions:   72000000 cycles:   50212189 heartbeat IPC: 1.42483 cumulative IPC: 1.43391 (Simulation time: 0 hr 2 min 11 sec) 
Heartbeat CPU  0 instructions:   73000001 cycles:   50914075 heartbeat IPC: 1.42473 cumulative IPC: 1.43379 (Simulation time: 0 hr 2 min 13 sec) 
Heartbeat CPU  0 instructions:   74000003 cycles:   51616158 heartbeat IPC: 1.42434 cumulative IPC: 1.43366 (Simulation time: 0 hr 2 min 15 sec) 
Heartbeat CPU  0 instructions:   75000002 cycles:   52318573 heartbeat IPC: 1.42366 cumulative IPC: 1.43353 (Simulation time: 0 hr 2 min 17 sec) 
Heartbeat CPU  0 instructions:   76000000 cycles:   53020514 heartbeat IPC: 1.42462 cumulative IPC: 1.43341 (Simulation time: 0 hr 2 min 19 sec) 
Heartbeat CPU  0 instructions:   77000003 cycles:   53722891 heartbeat IPC: 1.42374 cumulative IPC: 1.43328 (Simulation time: 0 hr 2 min 20 sec) 
Heartbeat CPU  0 instructions:   78000001 cycles:   54425209 heartbeat IPC: 1.42385 cumulative IPC: 1.43316 (Simulation time: 0 hr 2 min 22 sec) 
Heartbeat CPU  0 instructions:   79000001 cycles:   55126872 heartbeat IPC: 1.42519 cumulative IPC: 1.43306 (Simulation time: 0 hr 2 min 24 sec) 
Heartbeat CPU  0 instructions:   80000000 cycles:   55828684 heartbeat IPC: 1.42488 cumulative IPC: 1.43296 (Simulation time: 0 hr 2 min 26 sec) 
Heartbeat CPU  0 instructions:   81000002 cycles:   56530810 heartbeat IPC: 1.42425 cumulative IPC: 1.43285 (Simulation time: 0 hr 2 min 28 sec) 
Heartbeat CPU  0 instructions:   82000003 cycles:   57232800 heartbeat IPC: 1.42452 cumulative IPC: 1.43274 (Simulation time: 0 hr 2 min 29 sec) 
Heartbeat CPU  0 instructions:   83000001 cycles:   57934848 heartbeat IPC: 1.42440 cumulative IPC: 1.43264 (Simulation time: 0 hr 2 min 31 sec) 
Heartbeat CPU  0 instructions:   84000000 cycles:   58636826 heartbeat IPC: 1.42454 cumulative IPC: 1.43255 (Simulation time: 0 hr 2 min 33 sec) 
Heartbeat CPU  0 instructions:   85000000 cycles:   59324717 heartbeat IPC: 1.45372 cumulative IPC: 1.43279 (Simulation time: 0 hr 2 min 35 sec) 
Heartbeat CPU  0 instructions:   86000002 cycles:   59929905 heartbeat IPC: 1.65238 cumulative IPC: 1.43501 (Simulation time: 0 hr 2 min 37 sec) 
Heartbeat CPU  0 instructions:   87000002 cycles:   60632149 heartbeat IPC: 1.42401 cumulative IPC: 1.43488 (Simulation time: 0 hr 2 min 38 sec) 
Heartbeat CPU  0 instructions:   88000000 cycles:   61334469 heartbeat IPC: 1.42385 cumulative IPC: 1.43476 (Simulation time: 0 hr 2 min 40 sec) 
Heartbeat CPU  0 instructions:   89000001 cycles:   62036265 heartbeat IPC: 1.42492 cumulative IPC: 1.43464 (Simulation time: 0 hr 2 min 42 sec) 
Heartbeat CPU  0 instructions:   90000003 cycles:   62738359 heartbeat IPC: 1.42431 cumulative IPC: 1.43453 (Simulation time: 0 hr 2 min 44 sec) 
Heartbeat CPU  0 instructions:   91000003 cycles:   63440503 heartbeat IPC: 1.42421 cumulative IPC: 1.43441 (Simulation time: 0 hr 2 min 46 sec) 
Heartbeat CPU  0 instructions:   92000000 cycles:   64142455 heartbeat IPC: 1.42459 cumulative IPC: 1.43431 (Simulation time: 0 hr 2 min 48 sec) 
Heartbeat CPU  0 instructions:   93000002 cycles:   64844491 heartbeat IPC: 1.42443 cumulative IPC: 1.43420 (Simulation time: 0 hr 2 min 49 sec) 
Heartbeat CPU  0 instructions:   94000002 cycles:   65546287 heartbeat IPC: 1.42492 cumulative IPC: 1.43410 (Simulation time: 0 hr 2 min 51 sec) 
Heartbeat CPU  0 instructions:   95000003 cycles:   66248208 heartbeat IPC: 1.42466 cumulative IPC: 1.43400 (Simulation time: 0 hr 2 min 53 sec) 
Heartbeat CPU  0 instructions:   96000000 cycles:   66950281 heartbeat IPC: 1.42435 cumulative IPC: 1.43390 (Simulation time: 0 hr 2 min 55 sec) 
Heartbeat CPU  0 instructions:   97000000 cycles:   67652361 heartbeat IPC: 1.42434 cumulative IPC: 1.43380 (Simulation time: 0 hr 2 min 57 sec) 
Heartbeat CPU  0 instructions:   98000002 cycles:   68354274 heartbeat IPC: 1.42468 cumulative IPC: 1.43371 (Simulation time: 0 hr 2 min 59 sec) 
Heartbeat CPU  0 instructions:   99000003 cycles:   69056231 heartbeat IPC: 1.42459 cumulative IPC: 1.43361 (Simulation time: 0 hr 3 min 1 sec) 
Heartbeat CPU  0 instructions:  100000000 cycles:   69758387 heartbeat IPC: 1.42418 cumulative IPC: 1.43352 (Simulation time: 0 hr 3 min 2 sec) 

Warmup complete CPU  0 instructions:  100000001 cycles:   69758407 (Simulation time: 0 hr 3 min 2 sec) 

Heartbeat CPU  0 instructions:  101000000 cycles:   71662039 heartbeat IPC: 0.52531 cumulative IPC: 0.52531 (Simulation time: 0 hr 3 min 4 sec) 
Heartbeat CPU  0 instructions:  102000003 cycles:   73397479 heartbeat IPC: 0.57622 cumulative IPC: 0.54959 (Simulation time: 0 hr 3 min 6 sec) 
Heartbeat CPU  0 instructions:  103000003 cycles:   75242551 heartbeat IPC: 0.54198 cumulative IPC: 0.54703 (Simulation time: 0 hr 3 min 9 sec) 
Heartbeat CPU  0 instructions:  104000000 cycles:   77135728 heartbeat IPC: 0.52821 cumulative IPC: 0.54220 (Simulation time: 0 hr 3 min 11 sec) 
Heartbeat CPU  0 instructions:  105000002 cycles:   78950670 heartbeat IPC: 0.55098 cumulative IPC: 0.54394 (Simulation time: 0 hr 3 min 13 sec) 
Heartbeat CPU  0 instructions:  106000000 cycles:   80726316 heartbeat IPC: 0.56317 cumulative IPC: 0.54705 (Simulation time: 0 hr 3 min 15 sec) 
Heartbeat CPU  0 instructions:  107000003 cycles:   82615256 heartbeat IPC: 0.52940 cumulative IPC: 0.54446 (Simulation time: 0 hr 3 min 17 sec) 
Heartbeat CPU  0 instructions:  108000000 cycles:   93328977 heartbeat IPC: 0.09334 cumulative IPC: 0.33941 (Simulation time: 0 hr 3 min 19 sec) 
Heartbeat CPU  0 instructions:  109000003 cycles:  100083937 heartbeat IPC: 0.14804 cumulative IPC: 0.29678 (Simulation time: 0 hr 3 min 21 sec) 
Heartbeat CPU  0 instructions:  110000001 cycles:  101971503 heartbeat IPC: 0.52978 cumulative IPC: 0.31043 (Simulation time: 0 hr 3 min 23 sec) 
Heartbeat CPU  0 instructions:  111000000 cycles:  103866615 heartbeat IPC: 0.52767 cumulative IPC: 0.32250 (Simulation time: 0 hr 3 min 26 sec) 
Heartbeat CPU  0 instructions:  112000000 cycles:  105610864 heartbeat IPC: 0.57331 cumulative IPC: 0.33471 (Simulation time: 0 hr 3 min 28 sec) 
Heartbeat CPU  0 instructions:  113000000 cycles:  107459201 heartbeat IPC: 0.54103 cumulative IPC: 0.34482 (Simulation time: 0 hr 3 min 30 sec) 
Heartbeat CPU  0 instructions:  114000000 cycles:  109364688 heartbeat IPC: 0.52480 cumulative IPC: 0.35348 (Simulation time: 0 hr 3 min 32 sec) 
Heartbeat CPU  0 instructions:  115000001 cycles:  111178243 heartbeat IPC: 0.55140 cumulative IPC: 0.36215 (Simulation time: 0 hr 3 min 34 sec) 
Heartbeat CPU  0 instructions:  116000000 cycles:  112952402 heartbeat IPC: 0.56365 cumulative IPC: 0.37042 (Simulation time: 0 hr 3 min 36 sec) 
Heartbeat CPU  0 instructions:  117000003 cycles:  114848863 heartbeat IPC: 0.52730 cumulative IPC: 0.37702 (Simulation time: 0 hr 3 min 38 sec) 
Heartbeat CPU  0 instructions:  118000002 cycles:  116731190 heartbeat IPC: 0.53126 cumulative IPC: 0.38320 (Simulation time: 0 hr 3 min 40 sec) 
Heartbeat CPU  0 instructions:  119000002 cycles:  118455381 heartbeat IPC: 0.57998 cumulative IPC: 0.39017 (Simulation time: 0 hr 3 min 42 sec) 
Heartbeat CPU  0 instructions:  120000000 cycles:  120338398 heartbeat IPC: 0.53106 cumulative IPC: 0.39541 (Simulation time: 0 hr 3 min 44 sec) 
Heartbeat CPU  0 instructions:  121000003 cycles:  122233248 heartbeat IPC: 0.52775 cumulative IPC: 0.40019 (Simulation time: 0 hr 3 min 46 sec) 
Heartbeat CPU  0 instructions:  122000003 cycles:  123990466 heartbeat IPC: 0.56908 cumulative IPC: 0.40566 (Simulation time: 0 hr 3 min 48 sec) 
Heartbeat CPU  0 instructions:  123000002 cycles:  125821312 heartbeat IPC: 0.54620 cumulative IPC: 0.41025 (Simulation time: 0 hr 3 min 50 sec) 
Heartbeat CPU  0 instructions:  124000000 cycles:  127719812 heartbeat IPC: 0.52673 cumulative IPC: 0.41407 (Simulation time: 0 hr 3 min 53 sec) 
Heartbeat CPU  0 instructions:  125000000 cycles:  129555612 heartbeat IPC: 0.54472 cumulative IPC: 0.41808 (Simulation time: 0 hr 3 min 55 sec) 
Heartbeat CPU  0 instructions:  126000002 cycles:  131326673 heartbeat IPC: 0.56463 cumulative IPC: 0.42230 (Simulation time: 0 hr 3 min 57 sec) 
Heartbeat CPU  0 instructions:  127000002 cycles:  133340744 heartbeat IPC: 0.49651 cumulative IPC: 0.42465 (Simulation time: 0 hr 3 min 59 sec) 
Heartbeat CPU  0 instructions:  128000000 cycles:  135226148 heartbeat IPC: 0.53039 cumulative IPC: 0.42769 (Simulation time: 0 hr 4 min 1 sec) 
Heartbeat CPU  0 instructions:  129000001 cycles:  136947859 heartbeat IPC: 0.58082 cumulative IPC: 0.43162 (Simulation time: 0 hr 4 min 3 sec) 
Heartbeat CPU  0 instructions:  130000000 cycles:  142447016 heartbeat IPC: 0.18185 cumulative IPC: 0.41272 (Simulation time: 0 hr 4 min 5 sec) 
Heartbeat CPU  0 instructions:  131000003 cycles:  154529265 heartbeat IPC: 0.08277 cumulative IPC: 0.36569 (Simulation time: 0 hr 4 min 7 sec) 
Heartbeat CPU  0 instructions:  132000000 cycles:  156289054 heartbeat IPC: 0.56825 cumulative IPC: 0.36981 (Simulation time: 0 hr 4 min 9 sec) 
Heartbeat CPU  0 instructions:  133000000 cycles:  158122280 heartbeat IPC: 0.54549 cumulative IPC: 0.37346 (Simulation time: 0 hr 4 min 12 sec) 
Heartbeat CPU  0 instructions:  134000000 cycles:  160019393 heartbeat IPC: 0.52712 cumulative IPC: 0.37669 (Simulation time: 0 hr 4 min 14 sec) 
Heartbeat CPU  0 instructions:  135000000 cycles:  161853082 heartbeat IPC: 0.54535 cumulative IPC: 0.38004 (Simulation time: 0 hr 4 min 16 sec) 
Heartbeat CPU  0 instructions:  136000000 cycles:  163611548 heartbeat IPC: 0.56868 cumulative IPC: 0.38358 (Simulation time: 0 hr 4 min 18 sec) 
Heartbeat CPU  0 instructions:  137000002 cycles:  165509789 heartbeat IPC: 0.52680 cumulative IPC: 0.38642 (Simulation time: 0 hr 4 min 20 sec) 
Heartbeat CPU  0 instructions:  138000001 cycles:  167397442 heartbeat IPC: 0.52976 cumulative IPC: 0.38919 (Simulation time: 0 hr 4 min 22 sec) 
Heartbeat CPU  0 instructions:  139000001 cycles:  169120008 heartbeat IPC: 0.58053 cumulative IPC: 0.39251 (Simulation time: 0 hr 4 min 24 sec) 
Heartbeat CPU  0 instructions:  140000000 cycles:  171006476 heartbeat IPC: 0.53009 cumulative IPC: 0.39507 (Simulation time: 0 hr 4 min 26 sec) 
Heartbeat CPU  0 instructions:  141000000 cycles:  172903954 heartbeat IPC: 0.52702 cumulative IPC: 0.39750 (Simulation time: 0 hr 4 min 28 sec) 
Heartbeat CPU  0 instructions:  142000001 cycles:  174678791 heartbeat IPC: 0.56343 cumulative IPC: 0.40030 (Simulation time: 0 hr 4 min 30 sec) 
Heartbeat CPU  0 instructions:  143000001 cycles:  176493706 heartbeat IPC: 0.55099 cumulative IPC: 0.40287 (Simulation time: 0 hr 4 min 32 sec) 
Heartbeat CPU  0 instructions:  144000000 cycles:  178392800 heartbeat IPC: 0.52657 cumulative IPC: 0.40503 (Simulation time: 0 hr 4 min 34 sec) 
Heartbeat CPU  0 instructions:  145000000 cycles:  180245861 heartbeat IPC: 0.53965 cumulative IPC: 0.40729 (Simulation time: 0 hr 4 min 36 sec) 
Heartbeat CPU  0 instructions:  146000002 cycles:  181990088 heartbeat IPC: 0.57332 cumulative IPC: 0.40987 (Simulation time: 0 hr 4 min 39 sec) 
Heartbeat CPU  0 instructions:  147000003 cycles:  183884042 heartbeat IPC: 0.52800 cumulative IPC: 0.41183 (Simulation time: 0 hr 4 min 41 sec) 
Heartbeat CPU  0 instructions:  148000000 cycles:  185772927 heartbeat IPC: 0.52941 cumulative IPC: 0.41374 (Simulation time: 0 hr 4 min 43 sec) 
Heartbeat CPU  0 instructions:  149000002 cycles:  187501817 heartbeat IPC: 0.57841 cumulative IPC: 0.41616 (Simulation time: 0 hr 4 min 45 sec) 
Heartbeat CPU  0 instructions:  150000003 cycles:  189374116 heartbeat IPC: 0.53410 cumulative IPC: 0.41801 (Simulation time: 0 hr 4 min 47 sec) 
Heartbeat CPU  0 instructions:  151000003 cycles:  191266401 heartbeat IPC: 0.52846 cumulative IPC: 0.41973 (Simulation time: 0 hr 4 min 49 sec) 
Heartbeat CPU  0 instructions:  152000000 cycles:  193071158 heartbeat IPC: 0.55409 cumulative IPC: 0.42169 (Simulation time: 0 hr 4 min 51 sec) 
Heartbeat CPU  0 instructions:  153000003 cycles:  205866457 heartbeat IPC: 0.07815 cumulative IPC: 0.38940 (Simulation time: 0 hr 4 min 53 sec) 
Heartbeat CPU  0 instructions:  154000000 cycles:  210802079 heartbeat IPC: 0.20261 cumulative IPC: 0.38286 (Simulation time: 0 hr 4 min 56 sec) 
Heartbeat CPU  0 instructions:  155000000 cycles:  212654170 heartbeat IPC: 0.53993 cumulative IPC: 0.38490 (Simulation time: 0 hr 4 min 58 sec) 
Heartbeat CPU  0 instructions:  156000000 cycles:  214394315 heartbeat IPC: 0.57466 cumulative IPC: 0.38718 (Simulation time: 0 hr 5 min 0 sec) 
Heartbeat CPU  0 instructions:  157000001 cycles:  216288328 heartbeat IPC: 0.52798 cumulative IPC: 0.38900 (Simulation time: 0 hr 5 min 2 sec) 
Heartbeat CPU  0 instructions:  158000001 cycles:  218178066 heartbeat IPC: 0.52917 cumulative IPC: 0.39078 (Simulation time: 0 hr 5 min 4 sec) 
Heartbeat CPU  0 instructions:  159000000 cycles:  219904402 heartbeat IPC: 0.57926 cumulative IPC: 0.39295 (Simulation time: 0 hr 5 min 6 sec) 
Heartbeat CPU  0 instructions:  160000000 cycles:  221779393 heartbeat IPC: 0.53334 cumulative IPC: 0.39468 (Simulation time: 0 hr 5 min 8 sec) 
Heartbeat CPU  0 instructions:  161000003 cycles:  223678066 heartbeat IPC: 0.52669 cumulative IPC: 0.39631 (Simulation time: 0 hr 5 min 10 sec) 
Heartbeat CPU  0 instructions:  162000000 cycles:  225469994 heartbeat IPC: 0.55806 cumulative IPC: 0.39817 (Simulation time: 0 hr 5 min 12 sec) 
Heartbeat CPU  0 instructions:  163000003 cycles:  227270025 heartbeat IPC: 0.55555 cumulative IPC: 0.39997 (Simulation time: 0 hr 5 min 14 sec) 
Heartbeat CPU  0 instructions:  164000000 cycles:  229164409 heartbeat IPC: 0.52787 cumulative IPC: 0.40149 (Simulation time: 0 hr 5 min 16 sec) 
Heartbeat CPU  0 instructions:  165000000 cycles:  231042114 heartbeat IPC: 0.53256 cumulative IPC: 0.40302 (Simulation time: 0 hr 5 min 18 sec) 
Heartbeat CPU  0 instructions:  166000001 cycles:  232766647 heartbeat IPC: 0.57987 cumulative IPC: 0.40489 (Simulation time: 0 hr 5 min 20 sec) 
Heartbeat CPU  0 instructions:  167000000 cycles:  234657550 heartbeat IPC: 0.52885 cumulative IPC: 0.40631 (Simulation time: 0 hr 5 min 23 sec) 
Heartbeat CPU  0 instructions:  168000000 cycles:  236551381 heartbeat IPC: 0.52803 cumulative IPC: 0.40769 (Simulation time: 0 hr 5 min 25 sec) 
Heartbeat CPU  0 instructions:  169000001 cycles:  238287771 heartbeat IPC: 0.57591 cumulative IPC: 0.40942 (Simulation time: 0 hr 5 min 27 sec) 
Heartbeat CPU  0 instructions:  170000002 cycles:  240144790 heartbeat IPC: 0.53850 cumulative IPC: 0.41083 (Simulation time: 0 hr 5 min 29 sec) 
Heartbeat CPU  0 instructions:  171000001 cycles:  242044903 heartbeat IPC: 0.52628 cumulative IPC: 0.41210 (Simulation time: 0 hr 5 min 31 sec) 
Heartbeat CPU  0 instructions:  172000000 cycles:  243855067 heartbeat IPC: 0.55244 cumulative IPC: 0.41356 (Simulation time: 0 hr 5 min 33 sec) 
Heartbeat CPU  0 instructions:  173000000 cycles:  245637908 heartbeat IPC: 0.56090 cumulative IPC: 0.41506 (Simulation time: 0 hr 5 min 35 sec) 
Heartbeat CPU  0 instructions:  174000003 cycles:  247535642 heartbeat IPC: 0.52695 cumulative IPC: 0.41625 (Simulation time: 0 hr 5 min 37 sec) 
Heartbeat CPU  0 instructions:  175000000 cycles:  254700430 heartbeat IPC: 0.13957 cumulative IPC: 0.40553 (Simulation time: 0 hr 5 min 39 sec) 
Heartbeat CPU  0 instructions:  176000000 cycles:  264967791 heartbeat IPC: 0.09740 cumulative IPC: 0.38933 (Simulation time: 0 hr 5 min 42 sec) 
Heartbeat CPU  0 instructions:  177000001 cycles:  266930030 heartbeat IPC: 0.50962 cumulative IPC: 0.39052 (Simulation time: 0 hr 5 min 44 sec) 
Heartbeat CPU  0 instructions:  178000003 cycles:  268976168 heartbeat IPC: 0.48873 cumulative IPC: 0.39153 (Simulation time: 0 hr 5 min 46 sec) 
Heartbeat CPU  0 instructions:  179000002 cycles:  270879404 heartbeat IPC: 0.52542 cumulative IPC: 0.39280 (Simulation time: 0 hr 5 min 48 sec) 
Heartbeat CPU  0 instructions:  180000000 cycles:  272763826 heartbeat IPC: 0.53067 cumulative IPC: 0.39408 (Simulation time: 0 hr 5 min 50 sec) 
Heartbeat CPU  0 instructions:  181000003 cycles:  274675020 heartbeat IPC: 0.52323 cumulative IPC: 0.39528 (Simulation time: 0 hr 5 min 52 sec) 
Heartbeat CPU  0 instructions:  182000003 cycles:  276502530 heartbeat IPC: 0.54719 cumulative IPC: 0.39663 (Simulation time: 0 hr 5 min 54 sec) 
Heartbeat CPU  0 instructions:  183000000 cycles:  278312738 heartbeat IPC: 0.55242 cumulative IPC: 0.39798 (Simulation time: 0 hr 5 min 56 sec) 
Heartbeat CPU  0 instructions:  184000000 cycles:  280223410 heartbeat IPC: 0.52338 cumulative IPC: 0.39912 (Simulation time: 0 hr 5 min 58 sec) 
Heartbeat CPU  0 instructions:  185000002 cycles:  282123804 heartbeat IPC: 0.52621 cumulative IPC: 0.40025 (Simulation time: 0 hr 6 min 0 sec) 
Heartbeat CPU  0 instructions:  186000001 cycles:  283884297 heartbeat IPC: 0.56802 cumulative IPC: 0.40163 (Simulation time: 0 hr 6 min 2 sec) 
Heartbeat CPU  0 instructions:  187000000 cycles:  285783326 heartbeat IPC: 0.52658 cumulative IPC: 0.40273 (Simulation time: 0 hr 6 min 4 sec) 
Heartbeat CPU  0 instructions:  188000000 cycles:  287695172 heartbeat IPC: 0.52305 cumulative IPC: 0.40379 (Simulation time: 0 hr 6 min 6 sec) 
Heartbeat CPU  0 instructions:  189000000 cycles:  289465824 heartbeat IPC: 0.56476 cumulative IPC: 0.40508 (Simulation time: 0 hr 6 min 9 sec) 
Heartbeat CPU  0 instructions:  190000000 cycles:  291333615 heartbeat IPC: 0.53539 cumulative IPC: 0.40618 (Simulation time: 0 hr 6 min 11 sec) 
Heartbeat CPU  0 instructions:  191000000 cycles:  293246725 heartbeat IPC: 0.52271 cumulative IPC: 0.40718 (Simulation time: 0 hr 6 min 13 sec) 
Heartbeat CPU  0 instructions:  192000000 cycles:  295089466 heartbeat IPC: 0.54267 cumulative IPC: 0.40829 (Simulation time: 0 hr 6 min 15 sec) 
Heartbeat CPU  0 instructions:  193000001 cycles:  296885782 heartbeat IPC: 0.55670 cumulative IPC: 0.40946 (Simulation time: 0 hr 6 min 17 sec) 
Heartbeat CPU  0 instructions:  194000000 cycles:  298798739 heartbeat IPC: 0.52275 cumulative IPC: 0.41041 (Simulation time: 0 hr 6 min 19 sec) 
Heartbeat CPU  0 instructions:  195000002 cycles:  300698509 heartbeat IPC: 0.52638 cumulative IPC: 0.41136 (Simulation time: 0 hr 6 min 21 sec) 
Heartbeat CPU  0 instructions:  196000000 cycles:  302452114 heartbeat IPC: 0.57025 cumulative IPC: 0.41256 (Simulation time: 0 hr 6 min 23 sec) 
Heartbeat CPU  0 instructions:  197000000 cycles:  304461528 heartbeat IPC: 0.49766 cumulative IPC: 0.41329 (Simulation time: 0 hr 6 min 25 sec) 
Heartbeat CPU  0 instructions:  198000003 cycles:  318749010 heartbeat IPC: 0.06999 cumulative IPC: 0.39359 (Simulation time: 0 hr 6 min 28 sec) 
Heartbeat CPU  0 instructions:  199000001 cycles:  321853042 heartbeat IPC: 0.32216 cumulative IPC: 0.39271 (Simulation time: 0 hr 6 min 30 sec) 
Heartbeat CPU  0 instructions:  200000000 cycles:  323724477 heartbeat IPC: 0.53435 cumulative IPC: 0.39375 (Simulation time: 0 hr 6 min 32 sec) 
Finished CPU 0 instructions: 100000000 cycles: 253966098 cumulative IPC: 0.39375 (Simulation time: 0 hr 6 min 32 sec) 

ChampSim completed all CPUs

[ROI Statistics]
Core_0_instructions 100000000
Core_0_cycles 253966098
Core_0_IPC 0.39375

Core_0_branch_prediction_accuracy 99.16976
Core_0_branch_MPKI 0.01138
Core_0_average_ROB_occupancy_at_mispredict 253.39192

Core_0_L1D_total_access 83745466
Core_0_L1D_total_hit 82900495
Core_0_L1D_total_miss 844971
Core_0_L1D_loads 34101595
Core_0_L1D_load_hit 34071067
Core_0_L1D_load_miss 30528
Core_0_L1D_RFOs 16683902
Core_0_L1D_RFO_hit 16519372
Core_0_L1D_RFO_miss 164530
Core_0_L1D_prefetches 32959969
Core_0_L1D_prefetch_hit 32310056
Core_0_L1D_prefetch_miss 649913
Core_0_L1D_writebacks 0
Core_0_L1D_writeback_hit 0
Core_0_L1D_writeback_miss 0
Core_0_L1D_prefetch_requested 81149742
Core_0_L1D_prefetch_issued 78621280
Core_0_L1D_prefetch_useful 1250462
Core_0_L1D_prefetch_useless 38051
Core_0_L1D_prefetch_late 1544
Core_0_L1D_average_miss_latency 370570.84978

Core_0_L1I_total_access 26514632
Core_0_L1I_total_hit 26514632
Core_0_L1I_total_miss 0
Core_0_L1I_loads 26514632
Core_0_L1I_load_hit 26514632
Core_0_L1I_load_miss 0
Core_0_L1I_RFOs 0
Core_0_L1I_RFO_hit 0
Core_0_L1I_RFO_miss 0
Core_0_L1I_prefetches 0
Core_0_L1I_prefetch_hit 0
Core_0_L1I_prefetch_miss 0
Core_0_L1I_writebacks 0
Core_0_L1I_writeback_hit 0
Core_0_L1I_writeback_miss 0
Core_0_L1I_prefetch_requested 0
Core_0_L1I_prefetch_issued 0
Core_0_L1I_prefetch_useful 0
Core_0_L1I_prefetch_useless 0
Core_0_L1I_prefetch_late 0
Core_0_L1I_average_miss_latency -nan

Core_0_L2C_total_access 1666537
Core_0_L2C_total_hit 1123287
Core_0_L2C_total_miss 543250
Core_0_L2C_loads 29025
Core_0_L2C_load_hit 22685
Core_0_L2C_load_miss 6340
Core_0_L2C_RFOs 164433
Core_0_L2C_RFO_hit 342
Core_0_L2C_RFO_miss 164091
Core_0_L2C_prefetches 1302733
Core_0_L2C_prefetch_hit 930092
Core_0_L2C_prefetch_miss 372641
Core_0_L2C_writebacks 170346
Core_0_L2C_writeback_hit 170168
Core_0_L2C_writeback_miss 178
Core_0_L2C_prefetch_requested 1350644
Core_0_L2C_prefetch_issued 1323293
Core_0_L2C_prefetch_useful 14605
Core_0_L2C_prefetch_useless 704644
Core_0_L2C_prefetch_late 14
Core_0_L2C_average_miss_latency 159.94989

Core_0_LLC_total_access 1065186
Core_0_LLC_total_hit 478265
Core_0_LLC_total_miss 586921
Core_0_LLC_loads 6340
Core_0_LLC_load_hit 377
Core_0_LLC_load_miss 5963
Core_0_LLC_RFOs 164091
Core_0_LLC_RFO_hit 58
Core_0_LLC_RFO_miss 164033
Core_0_LLC_prefetches 730917
Core_0_LLC_prefetch_hit 359950
Core_0_LLC_prefetch_miss 370967
Core_0_LLC_writebacks 163838
Core_0_LLC_writeback_hit 117880
Core_0_LLC_writeback_miss 45958
Core_0_LLC_prefetch_requested 731069
Core_0_LLC_prefetch_issued 719567
Core_0_LLC_prefetch_useful 146
Core_0_LLC_prefetch_useless 704984
Core_0_LLC_prefetch_late 0
Core_0_LLC_average_miss_latency 219.76583

Core_0_major_page_fault 0
Core_0_minor_page_fault 8761

CPU 0 L1D next line prefetcher final stats
CPU 0 L2C next line prefetcher final stats
LLC Next Line Prefetcher Final Stats: none
Channel_0_RQ_row_buffer_hit 138391
Channel_0_RQ_row_buffer_miss 402572
Channel_0_WQ_row_buffer_hit 20930
Channel_0_WQ_row_buffer_miss 134596
Channel_0_WQ_full 0
Channel_0_dbus_congested 185512

avg_congested_cycle 10
