*************************************************
   ChampSim Multicore Out-of-Order Simulator
   Last compiled: Dec 22 2023 18:10:56
*************************************************

trace_0 ./test_trace/436.cactusADM-1804B.champsimtrace.xz
CPU 0 L2C IP-based stride prefetcher
Initialize DRRIP state
Assign rand_sets[0]: 454  LLC: 2048
rand_sets[0]: 454
Assign rand_sets[1]: 1662  LLC: 2048
rand_sets[1]: 1662
Assign rand_sets[2]: 1921  LLC: 2048
rand_sets[2]: 1921
Assign rand_sets[3]: 1131  LLC: 2048
rand_sets[3]: 1131
Assign rand_sets[4]: 331  LLC: 2048
rand_sets[4]: 331
Assign rand_sets[5]: 1531  LLC: 2048
rand_sets[5]: 1531
Assign rand_sets[6]: 482  LLC: 2048
rand_sets[6]: 482
Assign rand_sets[7]: 1275  LLC: 2048
rand_sets[7]: 1275
Assign rand_sets[8]: 1876  LLC: 2048
rand_sets[8]: 1876
Assign rand_sets[9]: 2038  LLC: 2048
rand_sets[9]: 2038
Assign rand_sets[10]: 701  LLC: 2048
rand_sets[10]: 701
Assign rand_sets[11]: 479  LLC: 2048
rand_sets[11]: 479
Assign rand_sets[12]: 892  LLC: 2048
rand_sets[12]: 892
Assign rand_sets[13]: 1820  LLC: 2048
rand_sets[13]: 1820
Assign rand_sets[14]: 1505  LLC: 2048
rand_sets[14]: 1505
Assign rand_sets[15]: 1159  LLC: 2048
rand_sets[15]: 1159
Assign rand_sets[16]: 513  LLC: 2048
rand_sets[16]: 513
Assign rand_sets[17]: 703  LLC: 2048
rand_sets[17]: 703
Assign rand_sets[18]: 561  LLC: 2048
rand_sets[18]: 561
Assign rand_sets[19]: 990  LLC: 2048
rand_sets[19]: 990
Assign rand_sets[20]: 342  LLC: 2048
rand_sets[20]: 342
Assign rand_sets[21]: 882  LLC: 2048
rand_sets[21]: 882
Assign rand_sets[22]: 15  LLC: 2048
rand_sets[22]: 15
Assign rand_sets[23]: 71  LLC: 2048
rand_sets[23]: 71
Assign rand_sets[24]: 1127  LLC: 2048
rand_sets[24]: 1127
Assign rand_sets[25]: 1382  LLC: 2048
rand_sets[25]: 1382
Assign rand_sets[26]: 647  LLC: 2048
rand_sets[26]: 647
Assign rand_sets[27]: 857  LLC: 2048
rand_sets[27]: 857
Assign rand_sets[28]: 1450  LLC: 2048
rand_sets[28]: 1450
Assign rand_sets[29]: 1160  LLC: 2048
rand_sets[29]: 1160
Assign rand_sets[30]: 1852  LLC: 2048
rand_sets[30]: 1852
Assign rand_sets[31]: 1881  LLC: 2048
rand_sets[31]: 1881
Assign rand_sets[32]: 1770  LLC: 2048
rand_sets[32]: 1770
Assign rand_sets[33]: 1622  LLC: 2048
rand_sets[33]: 1622
Assign rand_sets[34]: 275  LLC: 2048
rand_sets[34]: 275
Assign rand_sets[35]: 635  LLC: 2048
rand_sets[35]: 635
Assign rand_sets[36]: 466  LLC: 2048
rand_sets[36]: 466
Assign rand_sets[37]: 1413  LLC: 2048
rand_sets[37]: 1413
Assign rand_sets[38]: 417  LLC: 2048
rand_sets[38]: 417
Assign rand_sets[39]: 472  LLC: 2048
rand_sets[39]: 472
Assign rand_sets[40]: 1340  LLC: 2048
rand_sets[40]: 1340
Assign rand_sets[41]: 852  LLC: 2048
rand_sets[41]: 852
Assign rand_sets[42]: 1365  LLC: 2048
rand_sets[42]: 1365
Assign rand_sets[43]: 47  LLC: 2048
rand_sets[43]: 47
Assign rand_sets[44]: 823  LLC: 2048
rand_sets[44]: 823
Assign rand_sets[45]: 686  LLC: 2048
rand_sets[45]: 686
Assign rand_sets[46]: 1637  LLC: 2048
rand_sets[46]: 1637
Assign rand_sets[47]: 1115  LLC: 2048
rand_sets[47]: 1115
Assign rand_sets[48]: 986  LLC: 2048
rand_sets[48]: 986
Assign rand_sets[49]: 258  LLC: 2048
rand_sets[49]: 258
Assign rand_sets[50]: 633  LLC: 2048
rand_sets[50]: 633
Assign rand_sets[51]: 920  LLC: 2048
rand_sets[51]: 920
Assign rand_sets[52]: 204  LLC: 2048
rand_sets[52]: 204
Assign rand_sets[53]: 227  LLC: 2048
rand_sets[53]: 227
Assign rand_sets[54]: 1818  LLC: 2048
rand_sets[54]: 1818
Assign rand_sets[55]: 886  LLC: 2048
rand_sets[55]: 886
Assign rand_sets[56]: 1422  LLC: 2048
rand_sets[56]: 1422
Assign rand_sets[57]: 607  LLC: 2048
rand_sets[57]: 607
Assign rand_sets[58]: 217  LLC: 2048
rand_sets[58]: 217
Assign rand_sets[59]: 1945  LLC: 2048
rand_sets[59]: 1945
Assign rand_sets[60]: 143  LLC: 2048
rand_sets[60]: 143
Assign rand_sets[61]: 1311  LLC: 2048
rand_sets[61]: 1311
Assign rand_sets[62]: 319  LLC: 2048
rand_sets[62]: 319
Assign rand_sets[63]: 1846  LLC: 2048
rand_sets[63]: 1846
LLC Next Line Prefetcher
warmup_instructions 100000000
simulation_instructions 100000000
champsim_seed 271

num_cpus 1
cpu_freq 4000
dram_io_freq 2400
page_size 4096
block_size 64
max_read_per_cycle 8
max_fill_per_cycle 1
dram_channels 1
dram_ranks 1
dram_banks 8
dram_rows 65536
dram_columns 128
dram_row_size 8
dram_size 4096
dram_pages 1048576

fetch_width 6
decode_width 6
exec_width 4
lq_width 2
sq_width 2
retire_width 4
scheduler_size 128
branch_mispredict_penalty 20
rob_size 256
lq_size 72
sq_size 56
num_instr_destinations_sparc 4
num_instr_destinations 2
num_instr_sources 4

itlb_set 16
itlb_way 8
itlb_rq_size 16
itlb_wq_size 16
itlb_pq_size 0
itlb_mshr_size 8
itlb_latency 1

dtlb_set 16
dtlb_way 4
dtlb_rq_size 16
dtlb_wq_size 16
dtlb_pq_size 0
dtlb_mshr_size 8
dtlb_latency 1

stlb_set 128
stlb_way 12
stlb_rq_size 32
stlb_wq_size 32
stlb_pq_size 0
stlb_mshr_size 16
stlb_latency 8

l1i_size 32
l1i_set 64
l1i_way 8
l1i_rq_size 64
l1i_wq_size 64
l1i_pq_size 8
l1i_mshr_size 8
l1i_latency 1

l1d_size 32
l1d_set 64
l1d_way 8
l1d_rq_size 64
l1d_wq_size 64
l1d_pq_size 8
l1d_mshr_size 16
l1d_latency 4

l2c_size 512
l2c_set 1024
l2c_way 8
l2c_rq_size 32
l2c_wq_size 32
l2c_pq_size 16
l2c_mshr_size 32
l2c_latency 10

llc_size 2048
llc_set 2048
llc_way 16
llc_rq_size 32
llc_wq_size 32
llc_pq_size 32
llc_mshr_size 64
llc_latency 20

dram_channel_width 8
dram_wq_size 64
dram_rq_size 64
tRP 15
tRCD 15
tCAS 12.5
dram_dbus_turn_around_time 30
dram_write_high_wm 56
dram_write_low_wm 48
min_dram_writes_per_switch 16
dram_mtps 2400
dram_dbus_return_time 13


Heartbeat CPU  0 instructions:    1000000 cycles:     702369 heartbeat IPC: 1.42375 cumulative IPC: 1.42375 (Simulation time: 0 hr 0 min 2 sec) 
Heartbeat CPU  0 instructions:    2000000 cycles:    1404556 heartbeat IPC: 1.42412 cumulative IPC: 1.42394 (Simulation time: 0 hr 0 min 4 sec) 
Heartbeat CPU  0 instructions:    3000000 cycles:    2106847 heartbeat IPC: 1.42391 cumulative IPC: 1.42393 (Simulation time: 0 hr 0 min 6 sec) 
Heartbeat CPU  0 instructions:    4000000 cycles:    2809163 heartbeat IPC: 1.42386 cumulative IPC: 1.42391 (Simulation time: 0 hr 0 min 7 sec) 
Heartbeat CPU  0 instructions:    5000000 cycles:    3511354 heartbeat IPC: 1.42411 cumulative IPC: 1.42395 (Simulation time: 0 hr 0 min 9 sec) 
Heartbeat CPU  0 instructions:    6000000 cycles:    4213672 heartbeat IPC: 1.42386 cumulative IPC: 1.42394 (Simulation time: 0 hr 0 min 11 sec) 
Heartbeat CPU  0 instructions:    7000001 cycles:    4916060 heartbeat IPC: 1.42372 cumulative IPC: 1.42390 (Simulation time: 0 hr 0 min 13 sec) 
Heartbeat CPU  0 instructions:    8000000 cycles:    5618162 heartbeat IPC: 1.42429 cumulative IPC: 1.42395 (Simulation time: 0 hr 0 min 14 sec) 
Heartbeat CPU  0 instructions:    9000001 cycles:    6320656 heartbeat IPC: 1.42350 cumulative IPC: 1.42390 (Simulation time: 0 hr 0 min 16 sec) 
Heartbeat CPU  0 instructions:   10000000 cycles:    7022824 heartbeat IPC: 1.42416 cumulative IPC: 1.42393 (Simulation time: 0 hr 0 min 18 sec) 
Heartbeat CPU  0 instructions:   11000002 cycles:    7725032 heartbeat IPC: 1.42408 cumulative IPC: 1.42394 (Simulation time: 0 hr 0 min 20 sec) 
Heartbeat CPU  0 instructions:   12000000 cycles:    8427158 heartbeat IPC: 1.42424 cumulative IPC: 1.42397 (Simulation time: 0 hr 0 min 22 sec) 
Heartbeat CPU  0 instructions:   13000000 cycles:    9129693 heartbeat IPC: 1.42342 cumulative IPC: 1.42393 (Simulation time: 0 hr 0 min 23 sec) 
Heartbeat CPU  0 instructions:   14000002 cycles:    9831947 heartbeat IPC: 1.42399 cumulative IPC: 1.42393 (Simulation time: 0 hr 0 min 25 sec) 
Heartbeat CPU  0 instructions:   15000002 cycles:   10533860 heartbeat IPC: 1.42468 cumulative IPC: 1.42398 (Simulation time: 0 hr 0 min 27 sec) 
Heartbeat CPU  0 instructions:   16000000 cycles:   11236387 heartbeat IPC: 1.42343 cumulative IPC: 1.42395 (Simulation time: 0 hr 0 min 29 sec) 
Heartbeat CPU  0 instructions:   17000000 cycles:   11938927 heartbeat IPC: 1.42341 cumulative IPC: 1.42391 (Simulation time: 0 hr 0 min 31 sec) 
Heartbeat CPU  0 instructions:   18000001 cycles:   12599488 heartbeat IPC: 1.51387 cumulative IPC: 1.42863 (Simulation time: 0 hr 0 min 32 sec) 
Heartbeat CPU  0 instructions:   19000000 cycles:   13234007 heartbeat IPC: 1.57600 cumulative IPC: 1.43570 (Simulation time: 0 hr 0 min 34 sec) 
Heartbeat CPU  0 instructions:   20000000 cycles:   13936542 heartbeat IPC: 1.42342 cumulative IPC: 1.43508 (Simulation time: 0 hr 0 min 36 sec) 
Heartbeat CPU  0 instructions:   21000000 cycles:   14638903 heartbeat IPC: 1.42377 cumulative IPC: 1.43453 (Simulation time: 0 hr 0 min 38 sec) 
Heartbeat CPU  0 instructions:   22000002 cycles:   15341195 heartbeat IPC: 1.42391 cumulative IPC: 1.43405 (Simulation time: 0 hr 0 min 39 sec) 
Heartbeat CPU  0 instructions:   23000001 cycles:   16043560 heartbeat IPC: 1.42376 cumulative IPC: 1.43360 (Simulation time: 0 hr 0 min 41 sec) 
Heartbeat CPU  0 instructions:   24000000 cycles:   16745653 heartbeat IPC: 1.42431 cumulative IPC: 1.43321 (Simulation time: 0 hr 0 min 43 sec) 
Heartbeat CPU  0 instructions:   25000001 cycles:   17447943 heartbeat IPC: 1.42391 cumulative IPC: 1.43283 (Simulation time: 0 hr 0 min 45 sec) 
Heartbeat CPU  0 instructions:   26000003 cycles:   18150559 heartbeat IPC: 1.42326 cumulative IPC: 1.43246 (Simulation time: 0 hr 0 min 47 sec) 
Heartbeat CPU  0 instructions:   27000003 cycles:   18852734 heartbeat IPC: 1.42415 cumulative IPC: 1.43215 (Simulation time: 0 hr 0 min 48 sec) 
Heartbeat CPU  0 instructions:   28000000 cycles:   19554862 heartbeat IPC: 1.42424 cumulative IPC: 1.43187 (Simulation time: 0 hr 0 min 50 sec) 
Heartbeat CPU  0 instructions:   29000000 cycles:   20257263 heartbeat IPC: 1.42369 cumulative IPC: 1.43159 (Simulation time: 0 hr 0 min 52 sec) 
Heartbeat CPU  0 instructions:   30000003 cycles:   20959597 heartbeat IPC: 1.42383 cumulative IPC: 1.43133 (Simulation time: 0 hr 0 min 54 sec) 
Heartbeat CPU  0 instructions:   31000003 cycles:   21661548 heartbeat IPC: 1.42460 cumulative IPC: 1.43111 (Simulation time: 0 hr 0 min 56 sec) 
Heartbeat CPU  0 instructions:   32000000 cycles:   22363612 heartbeat IPC: 1.42437 cumulative IPC: 1.43090 (Simulation time: 0 hr 0 min 57 sec) 
Heartbeat CPU  0 instructions:   33000001 cycles:   23066346 heartbeat IPC: 1.42301 cumulative IPC: 1.43066 (Simulation time: 0 hr 0 min 59 sec) 
Heartbeat CPU  0 instructions:   34000000 cycles:   23768451 heartbeat IPC: 1.42429 cumulative IPC: 1.43047 (Simulation time: 0 hr 1 min 1 sec) 
Heartbeat CPU  0 instructions:   35000001 cycles:   24470679 heartbeat IPC: 1.42404 cumulative IPC: 1.43028 (Simulation time: 0 hr 1 min 3 sec) 
Heartbeat CPU  0 instructions:   36000000 cycles:   25172927 heartbeat IPC: 1.42400 cumulative IPC: 1.43011 (Simulation time: 0 hr 1 min 5 sec) 
Heartbeat CPU  0 instructions:   37000000 cycles:   25875492 heartbeat IPC: 1.42336 cumulative IPC: 1.42992 (Simulation time: 0 hr 1 min 6 sec) 
Heartbeat CPU  0 instructions:   38000001 cycles:   26577683 heartbeat IPC: 1.42412 cumulative IPC: 1.42977 (Simulation time: 0 hr 1 min 8 sec) 
Heartbeat CPU  0 instructions:   39000000 cycles:   27279928 heartbeat IPC: 1.42400 cumulative IPC: 1.42962 (Simulation time: 0 hr 1 min 10 sec) 
Heartbeat CPU  0 instructions:   40000000 cycles:   27982157 heartbeat IPC: 1.42404 cumulative IPC: 1.42948 (Simulation time: 0 hr 1 min 12 sec) 
Heartbeat CPU  0 instructions:   41000000 cycles:   28586366 heartbeat IPC: 1.65506 cumulative IPC: 1.43425 (Simulation time: 0 hr 1 min 13 sec) 
Heartbeat CPU  0 instructions:   42000002 cycles:   29277635 heartbeat IPC: 1.44662 cumulative IPC: 1.43454 (Simulation time: 0 hr 1 min 15 sec) 
Heartbeat CPU  0 instructions:   43000002 cycles:   29980021 heartbeat IPC: 1.42372 cumulative IPC: 1.43429 (Simulation time: 0 hr 1 min 17 sec) 
Heartbeat CPU  0 instructions:   44000000 cycles:   30682437 heartbeat IPC: 1.42365 cumulative IPC: 1.43405 (Simulation time: 0 hr 1 min 19 sec) 
Heartbeat CPU  0 instructions:   45000003 cycles:   31384708 heartbeat IPC: 1.42396 cumulative IPC: 1.43382 (Simulation time: 0 hr 1 min 21 sec) 
Heartbeat CPU  0 instructions:   46000003 cycles:   32086893 heartbeat IPC: 1.42413 cumulative IPC: 1.43361 (Simulation time: 0 hr 1 min 22 sec) 
Heartbeat CPU  0 instructions:   47000000 cycles:   32789069 heartbeat IPC: 1.42414 cumulative IPC: 1.43340 (Simulation time: 0 hr 1 min 24 sec) 
Heartbeat CPU  0 instructions:   48000000 cycles:   33491666 heartbeat IPC: 1.42329 cumulative IPC: 1.43319 (Simulation time: 0 hr 1 min 26 sec) 
Heartbeat CPU  0 instructions:   49000000 cycles:   34193655 heartbeat IPC: 1.42452 cumulative IPC: 1.43301 (Simulation time: 0 hr 1 min 28 sec) 
Heartbeat CPU  0 instructions:   50000000 cycles:   34895959 heartbeat IPC: 1.42388 cumulative IPC: 1.43283 (Simulation time: 0 hr 1 min 30 sec) 
Heartbeat CPU  0 instructions:   51000000 cycles:   35598444 heartbeat IPC: 1.42352 cumulative IPC: 1.43265 (Simulation time: 0 hr 1 min 31 sec) 
Heartbeat CPU  0 instructions:   52000000 cycles:   36300610 heartbeat IPC: 1.42416 cumulative IPC: 1.43248 (Simulation time: 0 hr 1 min 33 sec) 
Heartbeat CPU  0 instructions:   53000000 cycles:   37002985 heartbeat IPC: 1.42374 cumulative IPC: 1.43232 (Simulation time: 0 hr 1 min 35 sec) 
Heartbeat CPU  0 instructions:   54000001 cycles:   37705052 heartbeat IPC: 1.42437 cumulative IPC: 1.43217 (Simulation time: 0 hr 1 min 37 sec) 
Heartbeat CPU  0 instructions:   55000001 cycles:   38407313 heartbeat IPC: 1.42397 cumulative IPC: 1.43202 (Simulation time: 0 hr 1 min 39 sec) 
Heartbeat CPU  0 instructions:   56000000 cycles:   39109739 heartbeat IPC: 1.42364 cumulative IPC: 1.43187 (Simulation time: 0 hr 1 min 40 sec) 
Heartbeat CPU  0 instructions:   57000000 cycles:   39812194 heartbeat IPC: 1.42358 cumulative IPC: 1.43172 (Simulation time: 0 hr 1 min 42 sec) 
Heartbeat CPU  0 instructions:   58000003 cycles:   40514494 heartbeat IPC: 1.42390 cumulative IPC: 1.43159 (Simulation time: 0 hr 1 min 44 sec) 
Heartbeat CPU  0 instructions:   59000000 cycles:   41216623 heartbeat IPC: 1.42424 cumulative IPC: 1.43146 (Simulation time: 0 hr 1 min 46 sec) 
Heartbeat CPU  0 instructions:   60000000 cycles:   41919037 heartbeat IPC: 1.42366 cumulative IPC: 1.43133 (Simulation time: 0 hr 1 min 48 sec) 
Heartbeat CPU  0 instructions:   61000000 cycles:   42621202 heartbeat IPC: 1.42417 cumulative IPC: 1.43121 (Simulation time: 0 hr 1 min 49 sec) 
Heartbeat CPU  0 instructions:   62000002 cycles:   43323435 heartbeat IPC: 1.42403 cumulative IPC: 1.43110 (Simulation time: 0 hr 1 min 51 sec) 
Heartbeat CPU  0 instructions:   63000000 cycles:   43970184 heartbeat IPC: 1.54619 cumulative IPC: 1.43279 (Simulation time: 0 hr 1 min 53 sec) 
Heartbeat CPU  0 instructions:   64000000 cycles:   44620785 heartbeat IPC: 1.53704 cumulative IPC: 1.43431 (Simulation time: 0 hr 1 min 55 sec) 
Heartbeat CPU  0 instructions:   65000000 cycles:   45322831 heartbeat IPC: 1.42441 cumulative IPC: 1.43416 (Simulation time: 0 hr 1 min 57 sec) 
Heartbeat CPU  0 instructions:   66000001 cycles:   46024903 heartbeat IPC: 1.42436 cumulative IPC: 1.43401 (Simulation time: 0 hr 1 min 58 sec) 
Heartbeat CPU  0 instructions:   67000002 cycles:   46726993 heartbeat IPC: 1.42432 cumulative IPC: 1.43386 (Simulation time: 0 hr 2 min 0 sec) 
Heartbeat CPU  0 instructions:   68000000 cycles:   47429368 heartbeat IPC: 1.42374 cumulative IPC: 1.43371 (Simulation time: 0 hr 2 min 2 sec) 
Heartbeat CPU  0 instructions:   69000000 cycles:   48131568 heartbeat IPC: 1.42410 cumulative IPC: 1.43357 (Simulation time: 0 hr 2 min 4 sec) 
Heartbeat CPU  0 instructions:   70000002 cycles:   48833682 heartbeat IPC: 1.42427 cumulative IPC: 1.43344 (Simulation time: 0 hr 2 min 6 sec) 
Heartbeat CPU  0 instructions:   71000003 cycles:   49536284 heartbeat IPC: 1.42328 cumulative IPC: 1.43329 (Simulation time: 0 hr 2 min 7 sec) 
Heartbeat CPU  0 instructions:   72000000 cycles:   50238333 heartbeat IPC: 1.42440 cumulative IPC: 1.43317 (Simulation time: 0 hr 2 min 9 sec) 
Heartbeat CPU  0 instructions:   73000001 cycles:   50940466 heartbeat IPC: 1.42423 cumulative IPC: 1.43305 (Simulation time: 0 hr 2 min 11 sec) 
Heartbeat CPU  0 instructions:   74000003 cycles:   51642804 heartbeat IPC: 1.42382 cumulative IPC: 1.43292 (Simulation time: 0 hr 2 min 13 sec) 
Heartbeat CPU  0 instructions:   75000002 cycles:   52345455 heartbeat IPC: 1.42318 cumulative IPC: 1.43279 (Simulation time: 0 hr 2 min 15 sec) 
Heartbeat CPU  0 instructions:   76000000 cycles:   53047633 heartbeat IPC: 1.42414 cumulative IPC: 1.43267 (Simulation time: 0 hr 2 min 16 sec) 
Heartbeat CPU  0 instructions:   77000003 cycles:   53750227 heartbeat IPC: 1.42330 cumulative IPC: 1.43255 (Simulation time: 0 hr 2 min 18 sec) 
Heartbeat CPU  0 instructions:   78000001 cycles:   54452709 heartbeat IPC: 1.42352 cumulative IPC: 1.43244 (Simulation time: 0 hr 2 min 20 sec) 
Heartbeat CPU  0 instructions:   79000001 cycles:   55154608 heartbeat IPC: 1.42471 cumulative IPC: 1.43234 (Simulation time: 0 hr 2 min 22 sec) 
Heartbeat CPU  0 instructions:   80000000 cycles:   55856618 heartbeat IPC: 1.42448 cumulative IPC: 1.43224 (Simulation time: 0 hr 2 min 24 sec) 
Heartbeat CPU  0 instructions:   81000002 cycles:   56558982 heartbeat IPC: 1.42377 cumulative IPC: 1.43213 (Simulation time: 0 hr 2 min 25 sec) 
Heartbeat CPU  0 instructions:   82000003 cycles:   57261214 heartbeat IPC: 1.42403 cumulative IPC: 1.43203 (Simulation time: 0 hr 2 min 27 sec) 
Heartbeat CPU  0 instructions:   83000001 cycles:   57963449 heartbeat IPC: 1.42402 cumulative IPC: 1.43194 (Simulation time: 0 hr 2 min 29 sec) 
Heartbeat CPU  0 instructions:   84000000 cycles:   58665647 heartbeat IPC: 1.42410 cumulative IPC: 1.43184 (Simulation time: 0 hr 2 min 31 sec) 
Heartbeat CPU  0 instructions:   85000000 cycles:   59354147 heartbeat IPC: 1.45243 cumulative IPC: 1.43208 (Simulation time: 0 hr 2 min 33 sec) 
Heartbeat CPU  0 instructions:   86000002 cycles:   59962381 heartbeat IPC: 1.64411 cumulative IPC: 1.43423 (Simulation time: 0 hr 2 min 34 sec) 
Heartbeat CPU  0 instructions:   87000002 cycles:   60664840 heartbeat IPC: 1.42357 cumulative IPC: 1.43411 (Simulation time: 0 hr 2 min 36 sec) 
Heartbeat CPU  0 instructions:   88000000 cycles:   61367474 heartbeat IPC: 1.42321 cumulative IPC: 1.43398 (Simulation time: 0 hr 2 min 38 sec) 
Heartbeat CPU  0 instructions:   89000001 cycles:   62069498 heartbeat IPC: 1.42445 cumulative IPC: 1.43388 (Simulation time: 0 hr 2 min 40 sec) 
Heartbeat CPU  0 instructions:   90000003 cycles:   62771831 heartbeat IPC: 1.42383 cumulative IPC: 1.43376 (Simulation time: 0 hr 2 min 41 sec) 
Heartbeat CPU  0 instructions:   91000003 cycles:   63474225 heartbeat IPC: 1.42370 cumulative IPC: 1.43365 (Simulation time: 0 hr 2 min 43 sec) 
Heartbeat CPU  0 instructions:   92000000 cycles:   64176458 heartbeat IPC: 1.42402 cumulative IPC: 1.43355 (Simulation time: 0 hr 2 min 45 sec) 
Heartbeat CPU  0 instructions:   93000002 cycles:   64878792 heartbeat IPC: 1.42383 cumulative IPC: 1.43344 (Simulation time: 0 hr 2 min 47 sec) 
Heartbeat CPU  0 instructions:   94000002 cycles:   65580784 heartbeat IPC: 1.42452 cumulative IPC: 1.43335 (Simulation time: 0 hr 2 min 49 sec) 
Heartbeat CPU  0 instructions:   95000003 cycles:   66282950 heartbeat IPC: 1.42417 cumulative IPC: 1.43325 (Simulation time: 0 hr 2 min 50 sec) 
Heartbeat CPU  0 instructions:   96000000 cycles:   66985247 heartbeat IPC: 1.42389 cumulative IPC: 1.43315 (Simulation time: 0 hr 2 min 52 sec) 
Heartbeat CPU  0 instructions:   97000000 cycles:   67687579 heartbeat IPC: 1.42383 cumulative IPC: 1.43305 (Simulation time: 0 hr 2 min 54 sec) 
Heartbeat CPU  0 instructions:   98000002 cycles:   68389750 heartbeat IPC: 1.42416 cumulative IPC: 1.43296 (Simulation time: 0 hr 2 min 56 sec) 
Heartbeat CPU  0 instructions:   99000003 cycles:   69091938 heartbeat IPC: 1.42412 cumulative IPC: 1.43287 (Simulation time: 0 hr 2 min 58 sec) 
Heartbeat CPU  0 instructions:  100000000 cycles:   69794289 heartbeat IPC: 1.42379 cumulative IPC: 1.43278 (Simulation time: 0 hr 2 min 59 sec) 

Warmup complete CPU  0 instructions:  100000001 cycles:   69794309 (Simulation time: 0 hr 2 min 59 sec) 

Heartbeat CPU  0 instructions:  101000000 cycles:   71718929 heartbeat IPC: 0.51958 cumulative IPC: 0.51958 (Simulation time: 0 hr 3 min 1 sec) 
Heartbeat CPU  0 instructions:  102000003 cycles:   73475095 heartbeat IPC: 0.56942 cumulative IPC: 0.54336 (Simulation time: 0 hr 3 min 3 sec) 
Heartbeat CPU  0 instructions:  103000003 cycles:   75340932 heartbeat IPC: 0.53595 cumulative IPC: 0.54087 (Simulation time: 0 hr 3 min 6 sec) 
Heartbeat CPU  0 instructions:  104000000 cycles:   77254919 heartbeat IPC: 0.52247 cumulative IPC: 0.53615 (Simulation time: 0 hr 3 min 8 sec) 
Heartbeat CPU  0 instructions:  105000002 cycles:   79090466 heartbeat IPC: 0.54480 cumulative IPC: 0.53786 (Simulation time: 0 hr 3 min 10 sec) 
Heartbeat CPU  0 instructions:  106000000 cycles:   80885850 heartbeat IPC: 0.55698 cumulative IPC: 0.54095 (Simulation time: 0 hr 3 min 12 sec) 
Heartbeat CPU  0 instructions:  107000003 cycles:   82796794 heartbeat IPC: 0.52330 cumulative IPC: 0.53836 (Simulation time: 0 hr 3 min 14 sec) 
Heartbeat CPU  0 instructions:  108000000 cycles:   93584481 heartbeat IPC: 0.09270 cumulative IPC: 0.33627 (Simulation time: 0 hr 3 min 16 sec) 
Heartbeat CPU  0 instructions:  109000003 cycles:  100384899 heartbeat IPC: 0.14705 cumulative IPC: 0.29421 (Simulation time: 0 hr 3 min 18 sec) 
Heartbeat CPU  0 instructions:  110000001 cycles:  102292878 heartbeat IPC: 0.52411 cumulative IPC: 0.30771 (Simulation time: 0 hr 3 min 20 sec) 
Heartbeat CPU  0 instructions:  111000000 cycles:  104208783 heartbeat IPC: 0.52195 cumulative IPC: 0.31963 (Simulation time: 0 hr 3 min 22 sec) 
Heartbeat CPU  0 instructions:  112000000 cycles:  105974928 heartbeat IPC: 0.56620 cumulative IPC: 0.33167 (Simulation time: 0 hr 3 min 24 sec) 
Heartbeat CPU  0 instructions:  113000000 cycles:  107842351 heartbeat IPC: 0.53550 cumulative IPC: 0.34167 (Simulation time: 0 hr 3 min 26 sec) 
Heartbeat CPU  0 instructions:  114000000 cycles:  109768514 heartbeat IPC: 0.51917 cumulative IPC: 0.35023 (Simulation time: 0 hr 3 min 28 sec) 
Heartbeat CPU  0 instructions:  115000001 cycles:  111601840 heartbeat IPC: 0.54546 cumulative IPC: 0.35879 (Simulation time: 0 hr 3 min 30 sec) 
Heartbeat CPU  0 instructions:  116000000 cycles:  113395768 heartbeat IPC: 0.55744 cumulative IPC: 0.36696 (Simulation time: 0 hr 3 min 32 sec) 
Heartbeat CPU  0 instructions:  117000003 cycles:  115313357 heartbeat IPC: 0.52149 cumulative IPC: 0.37347 (Simulation time: 0 hr 3 min 35 sec) 
Heartbeat CPU  0 instructions:  118000002 cycles:  117215798 heartbeat IPC: 0.52564 cumulative IPC: 0.37957 (Simulation time: 0 hr 3 min 37 sec) 
Heartbeat CPU  0 instructions:  119000002 cycles:  118959797 heartbeat IPC: 0.57339 cumulative IPC: 0.38645 (Simulation time: 0 hr 3 min 39 sec) 
Heartbeat CPU  0 instructions:  120000000 cycles:  120863765 heartbeat IPC: 0.52522 cumulative IPC: 0.39162 (Simulation time: 0 hr 3 min 41 sec) 
Heartbeat CPU  0 instructions:  121000003 cycles:  122778457 heartbeat IPC: 0.52228 cumulative IPC: 0.39634 (Simulation time: 0 hr 3 min 43 sec) 
Heartbeat CPU  0 instructions:  122000002 cycles:  124556698 heartbeat IPC: 0.56235 cumulative IPC: 0.40174 (Simulation time: 0 hr 3 min 45 sec) 
Heartbeat CPU  0 instructions:  123000002 cycles:  126409114 heartbeat IPC: 0.53984 cumulative IPC: 0.40625 (Simulation time: 0 hr 3 min 47 sec) 
Heartbeat CPU  0 instructions:  124000000 cycles:  128327128 heartbeat IPC: 0.52137 cumulative IPC: 0.41003 (Simulation time: 0 hr 3 min 49 sec) 
Heartbeat CPU  0 instructions:  125000000 cycles:  130183423 heartbeat IPC: 0.53871 cumulative IPC: 0.41398 (Simulation time: 0 hr 3 min 51 sec) 
Heartbeat CPU  0 instructions:  126000002 cycles:  131973911 heartbeat IPC: 0.55851 cumulative IPC: 0.41814 (Simulation time: 0 hr 3 min 53 sec) 
Heartbeat CPU  0 instructions:  127000002 cycles:  134009234 heartbeat IPC: 0.49132 cumulative IPC: 0.42046 (Simulation time: 0 hr 3 min 55 sec) 
Heartbeat CPU  0 instructions:  128000000 cycles:  135916750 heartbeat IPC: 0.52424 cumulative IPC: 0.42346 (Simulation time: 0 hr 3 min 57 sec) 
Heartbeat CPU  0 instructions:  129000001 cycles:  137658258 heartbeat IPC: 0.57422 cumulative IPC: 0.42733 (Simulation time: 0 hr 3 min 59 sec) 
Heartbeat CPU  0 instructions:  130000000 cycles:  143196925 heartbeat IPC: 0.18055 cumulative IPC: 0.40870 (Simulation time: 0 hr 4 min 1 sec) 
Heartbeat CPU  0 instructions:  131000003 cycles:  155366978 heartbeat IPC: 0.08217 cumulative IPC: 0.36227 (Simulation time: 0 hr 4 min 3 sec) 
Heartbeat CPU  0 instructions:  132000000 cycles:  157146834 heartbeat IPC: 0.56184 cumulative IPC: 0.36633 (Simulation time: 0 hr 4 min 5 sec) 
Heartbeat CPU  0 instructions:  133000000 cycles:  159000518 heartbeat IPC: 0.53947 cumulative IPC: 0.36993 (Simulation time: 0 hr 4 min 7 sec) 
Heartbeat CPU  0 instructions:  134000000 cycles:  160918939 heartbeat IPC: 0.52126 cumulative IPC: 0.37312 (Simulation time: 0 hr 4 min 10 sec) 
Heartbeat CPU  0 instructions:  135000000 cycles:  162773111 heartbeat IPC: 0.53932 cumulative IPC: 0.37643 (Simulation time: 0 hr 4 min 12 sec) 
Heartbeat CPU  0 instructions:  136000000 cycles:  164551939 heartbeat IPC: 0.56217 cumulative IPC: 0.37992 (Simulation time: 0 hr 4 min 14 sec) 
Heartbeat CPU  0 instructions:  137000002 cycles:  166469589 heartbeat IPC: 0.52147 cumulative IPC: 0.38272 (Simulation time: 0 hr 4 min 16 sec) 
Heartbeat CPU  0 instructions:  138000001 cycles:  168377039 heartbeat IPC: 0.52426 cumulative IPC: 0.38546 (Simulation time: 0 hr 4 min 18 sec) 
Heartbeat CPU  0 instructions:  139000001 cycles:  170118539 heartbeat IPC: 0.57422 cumulative IPC: 0.38874 (Simulation time: 0 hr 4 min 20 sec) 
Heartbeat CPU  0 instructions:  140000000 cycles:  172025401 heartbeat IPC: 0.52442 cumulative IPC: 0.39127 (Simulation time: 0 hr 4 min 22 sec) 
Heartbeat CPU  0 instructions:  141000000 cycles:  173943336 heartbeat IPC: 0.52139 cumulative IPC: 0.39367 (Simulation time: 0 hr 4 min 24 sec) 
Heartbeat CPU  0 instructions:  142000001 cycles:  175737674 heartbeat IPC: 0.55731 cumulative IPC: 0.39644 (Simulation time: 0 hr 4 min 26 sec) 
Heartbeat CPU  0 instructions:  143000001 cycles:  177572974 heartbeat IPC: 0.54487 cumulative IPC: 0.39897 (Simulation time: 0 hr 4 min 28 sec) 
Heartbeat CPU  0 instructions:  144000000 cycles:  179492462 heartbeat IPC: 0.52097 cumulative IPC: 0.40110 (Simulation time: 0 hr 4 min 30 sec) 
Heartbeat CPU  0 instructions:  145000000 cycles:  181365319 heartbeat IPC: 0.53394 cumulative IPC: 0.40333 (Simulation time: 0 hr 4 min 32 sec) 
Heartbeat CPU  0 instructions:  146000002 cycles:  183129893 heartbeat IPC: 0.56671 cumulative IPC: 0.40587 (Simulation time: 0 hr 4 min 34 sec) 
Heartbeat CPU  0 instructions:  147000003 cycles:  185044499 heartbeat IPC: 0.52230 cumulative IPC: 0.40781 (Simulation time: 0 hr 4 min 36 sec) 
Heartbeat CPU  0 instructions:  148000000 cycles:  186952874 heartbeat IPC: 0.52400 cumulative IPC: 0.40970 (Simulation time: 0 hr 4 min 38 sec) 
Heartbeat CPU  0 instructions:  149000002 cycles:  188701605 heartbeat IPC: 0.57184 cumulative IPC: 0.41209 (Simulation time: 0 hr 4 min 40 sec) 
Heartbeat CPU  0 instructions:  150000003 cycles:  190594393 heartbeat IPC: 0.52832 cumulative IPC: 0.41391 (Simulation time: 0 hr 4 min 42 sec) 
Heartbeat CPU  0 instructions:  151000003 cycles:  192507751 heartbeat IPC: 0.52264 cumulative IPC: 0.41560 (Simulation time: 0 hr 4 min 44 sec) 
Heartbeat CPU  0 instructions:  152000000 cycles:  194331184 heartbeat IPC: 0.54841 cumulative IPC: 0.41755 (Simulation time: 0 hr 4 min 46 sec) 
Heartbeat CPU  0 instructions:  153000003 cycles:  207212544 heartbeat IPC: 0.07763 cumulative IPC: 0.38568 (Simulation time: 0 hr 4 min 49 sec) 
Heartbeat CPU  0 instructions:  154000000 cycles:  212184752 heartbeat IPC: 0.20112 cumulative IPC: 0.37924 (Simulation time: 0 hr 4 min 51 sec) 
Heartbeat CPU  0 instructions:  155000000 cycles:  214057068 heartbeat IPC: 0.53410 cumulative IPC: 0.38125 (Simulation time: 0 hr 4 min 53 sec) 
Heartbeat CPU  0 instructions:  156000000 cycles:  215818614 heartbeat IPC: 0.56768 cumulative IPC: 0.38350 (Simulation time: 0 hr 4 min 55 sec) 
Heartbeat CPU  0 instructions:  157000001 cycles:  217732816 heartbeat IPC: 0.52241 cumulative IPC: 0.38530 (Simulation time: 0 hr 4 min 57 sec) 
Heartbeat CPU  0 instructions:  158000001 cycles:  219643454 heartbeat IPC: 0.52339 cumulative IPC: 0.38706 (Simulation time: 0 hr 4 min 59 sec) 
Heartbeat CPU  0 instructions:  159000000 cycles:  221389967 heartbeat IPC: 0.57257 cumulative IPC: 0.38919 (Simulation time: 0 hr 5 min 1 sec) 
Heartbeat CPU  0 instructions:  160000000 cycles:  223285772 heartbeat IPC: 0.52748 cumulative IPC: 0.39090 (Simulation time: 0 hr 5 min 3 sec) 
Heartbeat CPU  0 instructions:  161000003 cycles:  225205475 heartbeat IPC: 0.52092 cumulative IPC: 0.39251 (Simulation time: 0 hr 5 min 5 sec) 
Heartbeat CPU  0 instructions:  162000000 cycles:  227017331 heartbeat IPC: 0.55192 cumulative IPC: 0.39434 (Simulation time: 0 hr 5 min 7 sec) 
Heartbeat CPU  0 instructions:  163000003 cycles:  228838311 heartbeat IPC: 0.54916 cumulative IPC: 0.39612 (Simulation time: 0 hr 5 min 9 sec) 
Heartbeat CPU  0 instructions:  164000000 cycles:  230753638 heartbeat IPC: 0.52210 cumulative IPC: 0.39762 (Simulation time: 0 hr 5 min 11 sec) 
Heartbeat CPU  0 instructions:  165000000 cycles:  232650961 heartbeat IPC: 0.52706 cumulative IPC: 0.39912 (Simulation time: 0 hr 5 min 13 sec) 
Heartbeat CPU  0 instructions:  166000001 cycles:  234396582 heartbeat IPC: 0.57286 cumulative IPC: 0.40097 (Simulation time: 0 hr 5 min 15 sec) 
Heartbeat CPU  0 instructions:  167000000 cycles:  236309175 heartbeat IPC: 0.52285 cumulative IPC: 0.40237 (Simulation time: 0 hr 5 min 17 sec) 
Heartbeat CPU  0 instructions:  168000000 cycles:  238222378 heartbeat IPC: 0.52268 cumulative IPC: 0.40373 (Simulation time: 0 hr 5 min 19 sec) 
Heartbeat CPU  0 instructions:  169000001 cycles:  239979436 heartbeat IPC: 0.56913 cumulative IPC: 0.40544 (Simulation time: 0 hr 5 min 21 sec) 
Heartbeat CPU  0 instructions:  170000002 cycles:  241856369 heartbeat IPC: 0.53278 cumulative IPC: 0.40683 (Simulation time: 0 hr 5 min 23 sec) 
Heartbeat CPU  0 instructions:  171000001 cycles:  243777345 heartbeat IPC: 0.52057 cumulative IPC: 0.40809 (Simulation time: 0 hr 5 min 26 sec) 
Heartbeat CPU  0 instructions:  172000000 cycles:  245608439 heartbeat IPC: 0.54612 cumulative IPC: 0.40952 (Simulation time: 0 hr 5 min 28 sec) 
Heartbeat CPU  0 instructions:  173000000 cycles:  247411216 heartbeat IPC: 0.55470 cumulative IPC: 0.41100 (Simulation time: 0 hr 5 min 30 sec) 
Heartbeat CPU  0 instructions:  174000003 cycles:  249330432 heartbeat IPC: 0.52105 cumulative IPC: 0.41217 (Simulation time: 0 hr 5 min 32 sec) 
Heartbeat CPU  0 instructions:  175000000 cycles:  256541436 heartbeat IPC: 0.13868 cumulative IPC: 0.40161 (Simulation time: 0 hr 5 min 34 sec) 
Heartbeat CPU  0 instructions:  176000000 cycles:  266885854 heartbeat IPC: 0.09667 cumulative IPC: 0.38561 (Simulation time: 0 hr 5 min 36 sec) 
Heartbeat CPU  0 instructions:  177000001 cycles:  268869200 heartbeat IPC: 0.50420 cumulative IPC: 0.38679 (Simulation time: 0 hr 5 min 38 sec) 
Heartbeat CPU  0 instructions:  178000003 cycles:  270935495 heartbeat IPC: 0.48396 cumulative IPC: 0.38779 (Simulation time: 0 hr 5 min 40 sec) 
Heartbeat CPU  0 instructions:  179000002 cycles:  272860850 heartbeat IPC: 0.51938 cumulative IPC: 0.38904 (Simulation time: 0 hr 5 min 42 sec) 
Heartbeat CPU  0 instructions:  180000000 cycles:  274765521 heartbeat IPC: 0.52502 cumulative IPC: 0.39030 (Simulation time: 0 hr 5 min 44 sec) 
Heartbeat CPU  0 instructions:  181000003 cycles:  276698256 heartbeat IPC: 0.51740 cumulative IPC: 0.39149 (Simulation time: 0 hr 5 min 46 sec) 
Heartbeat CPU  0 instructions:  182000003 cycles:  278546636 heartbeat IPC: 0.54101 cumulative IPC: 0.39281 (Simulation time: 0 hr 5 min 48 sec) 
Heartbeat CPU  0 instructions:  183000000 cycles:  280377465 heartbeat IPC: 0.54620 cumulative IPC: 0.39414 (Simulation time: 0 hr 5 min 50 sec) 
Heartbeat CPU  0 instructions:  184000000 cycles:  282308428 heartbeat IPC: 0.51788 cumulative IPC: 0.39527 (Simulation time: 0 hr 5 min 53 sec) 
Heartbeat CPU  0 instructions:  185000002 cycles:  284228592 heartbeat IPC: 0.52079 cumulative IPC: 0.39639 (Simulation time: 0 hr 5 min 55 sec) 
Heartbeat CPU  0 instructions:  186000001 cycles:  286008049 heartbeat IPC: 0.56197 cumulative IPC: 0.39775 (Simulation time: 0 hr 5 min 57 sec) 
Heartbeat CPU  0 instructions:  187000000 cycles:  287927380 heartbeat IPC: 0.52101 cumulative IPC: 0.39884 (Simulation time: 0 hr 5 min 59 sec) 
Heartbeat CPU  0 instructions:  188000000 cycles:  289859734 heartbeat IPC: 0.51750 cumulative IPC: 0.39988 (Simulation time: 0 hr 6 min 1 sec) 
Heartbeat CPU  0 instructions:  189000000 cycles:  291650953 heartbeat IPC: 0.55828 cumulative IPC: 0.40116 (Simulation time: 0 hr 6 min 3 sec) 
Heartbeat CPU  0 instructions:  190000000 cycles:  293539805 heartbeat IPC: 0.52942 cumulative IPC: 0.40224 (Simulation time: 0 hr 6 min 5 sec) 
Heartbeat CPU  0 instructions:  191000000 cycles:  295472805 heartbeat IPC: 0.51733 cumulative IPC: 0.40323 (Simulation time: 0 hr 6 min 7 sec) 
Heartbeat CPU  0 instructions:  192000000 cycles:  297335430 heartbeat IPC: 0.53688 cumulative IPC: 0.40432 (Simulation time: 0 hr 6 min 9 sec) 
Heartbeat CPU  0 instructions:  193000001 cycles:  299152468 heartbeat IPC: 0.55035 cumulative IPC: 0.40548 (Simulation time: 0 hr 6 min 11 sec) 
Heartbeat CPU  0 instructions:  194000000 cycles:  301086187 heartbeat IPC: 0.51714 cumulative IPC: 0.40641 (Simulation time: 0 hr 6 min 13 sec) 
Heartbeat CPU  0 instructions:  195000002 cycles:  303005942 heartbeat IPC: 0.52090 cumulative IPC: 0.40736 (Simulation time: 0 hr 6 min 15 sec) 
Heartbeat CPU  0 instructions:  196000000 cycles:  304781302 heartbeat IPC: 0.56326 cumulative IPC: 0.40853 (Simulation time: 0 hr 6 min 17 sec) 
Heartbeat CPU  0 instructions:  197000000 cycles:  306810891 heartbeat IPC: 0.49271 cumulative IPC: 0.40925 (Simulation time: 0 hr 6 min 19 sec) 
Heartbeat CPU  0 instructions:  198000003 cycles:  321193132 heartbeat IPC: 0.06953 cumulative IPC: 0.38982 (Simulation time: 0 hr 6 min 21 sec) 
Heartbeat CPU  0 instructions:  199000001 cycles:  324328671 heartbeat IPC: 0.31892 cumulative IPC: 0.38895 (Simulation time: 0 hr 6 min 24 sec) 
Heartbeat CPU  0 instructions:  200000000 cycles:  326220700 heartbeat IPC: 0.52853 cumulative IPC: 0.38998 (Simulation time: 0 hr 6 min 26 sec) 
Finished CPU 0 instructions: 100000000 cycles: 256426419 cumulative IPC: 0.38998 (Simulation time: 0 hr 6 min 26 sec) 

ChampSim completed all CPUs

[ROI Statistics]
Core_0_instructions 100000000
Core_0_cycles 256426419
Core_0_IPC 0.38998

Core_0_branch_prediction_accuracy 99.16976
Core_0_branch_MPKI 0.01138
Core_0_average_ROB_occupancy_at_mispredict 253.38840

Core_0_L1D_total_access 50838541
Core_0_L1D_total_hit 50015859
Core_0_L1D_total_miss 822682
Core_0_L1D_loads 34156555
Core_0_L1D_load_hit 33498114
Core_0_L1D_load_miss 658441
Core_0_L1D_RFOs 16681986
Core_0_L1D_RFO_hit 16517745
Core_0_L1D_RFO_miss 164241
Core_0_L1D_prefetches 0
Core_0_L1D_prefetch_hit 0
Core_0_L1D_prefetch_miss 0
Core_0_L1D_writebacks 0
Core_0_L1D_writeback_hit 0
Core_0_L1D_writeback_miss 0
Core_0_L1D_prefetch_requested 0
Core_0_L1D_prefetch_issued 0
Core_0_L1D_prefetch_useful 0
Core_0_L1D_prefetch_useless 0
Core_0_L1D_prefetch_late 0
Core_0_L1D_average_miss_latency 110.76742

Core_0_L1I_total_access 26644733
Core_0_L1I_total_hit 26644733
Core_0_L1I_total_miss 0
Core_0_L1I_loads 26644733
Core_0_L1I_load_hit 26644733
Core_0_L1I_load_miss 0
Core_0_L1I_RFOs 0
Core_0_L1I_RFO_hit 0
Core_0_L1I_RFO_miss 0
Core_0_L1I_prefetches 0
Core_0_L1I_prefetch_hit 0
Core_0_L1I_prefetch_miss 0
Core_0_L1I_writebacks 0
Core_0_L1I_writeback_hit 0
Core_0_L1I_writeback_miss 0
Core_0_L1I_prefetch_requested 0
Core_0_L1I_prefetch_issued 0
Core_0_L1I_prefetch_useful 0
Core_0_L1I_prefetch_useless 0
Core_0_L1I_prefetch_late 0
Core_0_L1I_average_miss_latency -nan

Core_0_L2C_total_access 2682276
Core_0_L2C_total_hit 2138852
Core_0_L2C_total_miss 543424
Core_0_L2C_loads 658441
Core_0_L2C_load_hit 634964
Core_0_L2C_load_miss 23477
Core_0_L2C_RFOs 164241
Core_0_L2C_RFO_hit 79
Core_0_L2C_RFO_miss 164162
Core_0_L2C_prefetches 1688459
Core_0_L2C_prefetch_hit 1332864
Core_0_L2C_prefetch_miss 355595
Core_0_L2C_writebacks 171135
Core_0_L2C_writeback_hit 170945
Core_0_L2C_writeback_miss 190
Core_0_L2C_prefetch_requested 3511529
Core_0_L2C_prefetch_issued 3196209
Core_0_L2C_prefetch_useful 669720
Core_0_L2C_prefetch_useless 876
Core_0_L2C_prefetch_late 28
Core_0_L2C_average_miss_latency 170.00670

Core_0_LLC_total_access 1034210
Core_0_LLC_total_hit 479683
Core_0_LLC_total_miss 554527
Core_0_LLC_loads 23449
Core_0_LLC_load_hit 17130
Core_0_LLC_load_miss 6319
Core_0_LLC_RFOs 164162
Core_0_LLC_RFO_hit 1647
Core_0_LLC_RFO_miss 162515
Core_0_LLC_prefetches 682929
Core_0_LLC_prefetch_hit 310110
Core_0_LLC_prefetch_miss 372819
Core_0_LLC_writebacks 163670
Core_0_LLC_writeback_hit 150796
Core_0_LLC_writeback_miss 12874
Core_0_LLC_prefetch_requested 718120
Core_0_LLC_prefetch_issued 706854
Core_0_LLC_prefetch_useful 58394
Core_0_LLC_prefetch_useless 645356
Core_0_LLC_prefetch_late 21
Core_0_LLC_average_miss_latency 237.04182

Core_0_major_page_fault 0
Core_0_minor_page_fault 8761

CPU 0 L2C PC-based stride prefetcher final stats
LLC Next Line Prefetcher Final Stats: none
Channel_0_RQ_row_buffer_hit 141881
Channel_0_RQ_row_buffer_miss 399772
Channel_0_WQ_row_buffer_hit 17854
Channel_0_WQ_row_buffer_miss 140204
Channel_0_WQ_full 0
Channel_0_dbus_congested 187786

avg_congested_cycle 10
