*************************************************
   ChampSim Multicore Out-of-Order Simulator
   Last compiled: Dec 22 2023 22:01:54
*************************************************

trace_0 ./test_trace/436.cactusADM-1804B.champsimtrace.xz
CPU 0 L1D next line prefetcher
Initialize SHIP state
warmup_instructions 100000000
simulation_instructions 100000000
champsim_seed 271

num_cpus 1
cpu_freq 4000
dram_io_freq 2400
page_size 4096
block_size 64
max_read_per_cycle 8
max_fill_per_cycle 1
dram_channels 1
dram_ranks 1
dram_banks 8
dram_rows 65536
dram_columns 128
dram_row_size 8
dram_size 4096
dram_pages 1048576

fetch_width 6
decode_width 6
exec_width 4
lq_width 2
sq_width 2
retire_width 4
scheduler_size 128
branch_mispredict_penalty 20
rob_size 256
lq_size 72
sq_size 56
num_instr_destinations_sparc 4
num_instr_destinations 2
num_instr_sources 4

itlb_set 16
itlb_way 8
itlb_rq_size 16
itlb_wq_size 16
itlb_pq_size 0
itlb_mshr_size 8
itlb_latency 1

dtlb_set 16
dtlb_way 4
dtlb_rq_size 16
dtlb_wq_size 16
dtlb_pq_size 0
dtlb_mshr_size 8
dtlb_latency 1

stlb_set 128
stlb_way 12
stlb_rq_size 32
stlb_wq_size 32
stlb_pq_size 0
stlb_mshr_size 16
stlb_latency 8

l1i_size 32
l1i_set 64
l1i_way 8
l1i_rq_size 64
l1i_wq_size 64
l1i_pq_size 8
l1i_mshr_size 8
l1i_latency 1

l1d_size 32
l1d_set 64
l1d_way 8
l1d_rq_size 64
l1d_wq_size 64
l1d_pq_size 8
l1d_mshr_size 16
l1d_latency 4

l2c_size 512
l2c_set 1024
l2c_way 8
l2c_rq_size 32
l2c_wq_size 32
l2c_pq_size 16
l2c_mshr_size 32
l2c_latency 10

llc_size 2048
llc_set 2048
llc_way 16
llc_rq_size 32
llc_wq_size 32
llc_pq_size 32
llc_mshr_size 64
llc_latency 20

dram_channel_width 8
dram_wq_size 64
dram_rq_size 64
tRP 15
tRCD 15
tCAS 12.5
dram_dbus_turn_around_time 30
dram_write_high_wm 56
dram_write_low_wm 48
min_dram_writes_per_switch 16
dram_mtps 2400
dram_dbus_return_time 13


Heartbeat CPU  0 instructions:    1000000 cycles:     702169 heartbeat IPC: 1.42416 cumulative IPC: 1.42416 (Simulation time: 0 hr 0 min 1 sec) 
Heartbeat CPU  0 instructions:    2000000 cycles:    1404110 heartbeat IPC: 1.42462 cumulative IPC: 1.42439 (Simulation time: 0 hr 0 min 3 sec) 
Heartbeat CPU  0 instructions:    3000000 cycles:    2106264 heartbeat IPC: 1.42419 cumulative IPC: 1.42432 (Simulation time: 0 hr 0 min 5 sec) 
Heartbeat CPU  0 instructions:    4000000 cycles:    2808416 heartbeat IPC: 1.42419 cumulative IPC: 1.42429 (Simulation time: 0 hr 0 min 7 sec) 
Heartbeat CPU  0 instructions:    5000000 cycles:    3510330 heartbeat IPC: 1.42468 cumulative IPC: 1.42437 (Simulation time: 0 hr 0 min 9 sec) 
Heartbeat CPU  0 instructions:    6000000 cycles:    4212453 heartbeat IPC: 1.42425 cumulative IPC: 1.42435 (Simulation time: 0 hr 0 min 10 sec) 
Heartbeat CPU  0 instructions:    7000001 cycles:    4914710 heartbeat IPC: 1.42398 cumulative IPC: 1.42430 (Simulation time: 0 hr 0 min 12 sec) 
Heartbeat CPU  0 instructions:    8000000 cycles:    5616540 heartbeat IPC: 1.42485 cumulative IPC: 1.42436 (Simulation time: 0 hr 0 min 14 sec) 
Heartbeat CPU  0 instructions:    9000001 cycles:    6318774 heartbeat IPC: 1.42403 cumulative IPC: 1.42433 (Simulation time: 0 hr 0 min 16 sec) 
Heartbeat CPU  0 instructions:   10000000 cycles:    7020818 heartbeat IPC: 1.42441 cumulative IPC: 1.42434 (Simulation time: 0 hr 0 min 18 sec) 
Heartbeat CPU  0 instructions:   11000002 cycles:    7722797 heartbeat IPC: 1.42455 cumulative IPC: 1.42435 (Simulation time: 0 hr 0 min 19 sec) 
Heartbeat CPU  0 instructions:   12000000 cycles:    8424735 heartbeat IPC: 1.42462 cumulative IPC: 1.42438 (Simulation time: 0 hr 0 min 21 sec) 
Heartbeat CPU  0 instructions:   13000000 cycles:    9127079 heartbeat IPC: 1.42380 cumulative IPC: 1.42433 (Simulation time: 0 hr 0 min 23 sec) 
Heartbeat CPU  0 instructions:   14000002 cycles:    9829155 heartbeat IPC: 1.42435 cumulative IPC: 1.42433 (Simulation time: 0 hr 0 min 25 sec) 
Heartbeat CPU  0 instructions:   15000002 cycles:   10530862 heartbeat IPC: 1.42510 cumulative IPC: 1.42439 (Simulation time: 0 hr 0 min 27 sec) 
Heartbeat CPU  0 instructions:   16000000 cycles:   11233266 heartbeat IPC: 1.42368 cumulative IPC: 1.42434 (Simulation time: 0 hr 0 min 28 sec) 
Heartbeat CPU  0 instructions:   17000000 cycles:   11935599 heartbeat IPC: 1.42383 cumulative IPC: 1.42431 (Simulation time: 0 hr 0 min 30 sec) 
Heartbeat CPU  0 instructions:   18000001 cycles:   12594637 heartbeat IPC: 1.51736 cumulative IPC: 1.42918 (Simulation time: 0 hr 0 min 32 sec) 
Heartbeat CPU  0 instructions:   19000000 cycles:   13226911 heartbeat IPC: 1.58159 cumulative IPC: 1.43647 (Simulation time: 0 hr 0 min 34 sec) 
Heartbeat CPU  0 instructions:   20000000 cycles:   13929190 heartbeat IPC: 1.42394 cumulative IPC: 1.43583 (Simulation time: 0 hr 0 min 35 sec) 
Heartbeat CPU  0 instructions:   21000000 cycles:   14631372 heartbeat IPC: 1.42413 cumulative IPC: 1.43527 (Simulation time: 0 hr 0 min 37 sec) 
Heartbeat CPU  0 instructions:   22000002 cycles:   15333412 heartbeat IPC: 1.42442 cumulative IPC: 1.43478 (Simulation time: 0 hr 0 min 39 sec) 
Heartbeat CPU  0 instructions:   23000001 cycles:   16035559 heartbeat IPC: 1.42420 cumulative IPC: 1.43431 (Simulation time: 0 hr 0 min 41 sec) 
Heartbeat CPU  0 instructions:   24000000 cycles:   16737430 heartbeat IPC: 1.42476 cumulative IPC: 1.43391 (Simulation time: 0 hr 0 min 43 sec) 
Heartbeat CPU  0 instructions:   25000001 cycles:   17439548 heartbeat IPC: 1.42426 cumulative IPC: 1.43352 (Simulation time: 0 hr 0 min 44 sec) 
Heartbeat CPU  0 instructions:   26000003 cycles:   18141880 heartbeat IPC: 1.42383 cumulative IPC: 1.43315 (Simulation time: 0 hr 0 min 46 sec) 
Heartbeat CPU  0 instructions:   27000003 cycles:   18843845 heartbeat IPC: 1.42457 cumulative IPC: 1.43283 (Simulation time: 0 hr 0 min 48 sec) 
Heartbeat CPU  0 instructions:   28000000 cycles:   19545803 heartbeat IPC: 1.42458 cumulative IPC: 1.43253 (Simulation time: 0 hr 0 min 50 sec) 
Heartbeat CPU  0 instructions:   29000000 cycles:   20248010 heartbeat IPC: 1.42408 cumulative IPC: 1.43224 (Simulation time: 0 hr 0 min 52 sec) 
Heartbeat CPU  0 instructions:   30000003 cycles:   20950140 heartbeat IPC: 1.42424 cumulative IPC: 1.43197 (Simulation time: 0 hr 0 min 53 sec) 
Heartbeat CPU  0 instructions:   31000003 cycles:   21651838 heartbeat IPC: 1.42511 cumulative IPC: 1.43175 (Simulation time: 0 hr 0 min 55 sec) 
Heartbeat CPU  0 instructions:   32000000 cycles:   22353723 heartbeat IPC: 1.42473 cumulative IPC: 1.43153 (Simulation time: 0 hr 0 min 57 sec) 
Heartbeat CPU  0 instructions:   33000001 cycles:   23056211 heartbeat IPC: 1.42351 cumulative IPC: 1.43128 (Simulation time: 0 hr 0 min 59 sec) 
Heartbeat CPU  0 instructions:   34000000 cycles:   23758182 heartbeat IPC: 1.42456 cumulative IPC: 1.43109 (Simulation time: 0 hr 1 min 1 sec) 
Heartbeat CPU  0 instructions:   35000001 cycles:   24460080 heartbeat IPC: 1.42471 cumulative IPC: 1.43090 (Simulation time: 0 hr 1 min 3 sec) 
Heartbeat CPU  0 instructions:   36000000 cycles:   25162060 heartbeat IPC: 1.42454 cumulative IPC: 1.43073 (Simulation time: 0 hr 1 min 4 sec) 
Heartbeat CPU  0 instructions:   37000000 cycles:   25864425 heartbeat IPC: 1.42376 cumulative IPC: 1.43054 (Simulation time: 0 hr 1 min 6 sec) 
Heartbeat CPU  0 instructions:   38000001 cycles:   26566417 heartbeat IPC: 1.42452 cumulative IPC: 1.43038 (Simulation time: 0 hr 1 min 8 sec) 
Heartbeat CPU  0 instructions:   39000000 cycles:   27268347 heartbeat IPC: 1.42464 cumulative IPC: 1.43023 (Simulation time: 0 hr 1 min 10 sec) 
Heartbeat CPU  0 instructions:   40000000 cycles:   27970337 heartbeat IPC: 1.42452 cumulative IPC: 1.43009 (Simulation time: 0 hr 1 min 12 sec) 
Heartbeat CPU  0 instructions:   41000000 cycles:   28571361 heartbeat IPC: 1.66383 cumulative IPC: 1.43500 (Simulation time: 0 hr 1 min 13 sec) 
Heartbeat CPU  0 instructions:   42000002 cycles:   29262020 heartbeat IPC: 1.44790 cumulative IPC: 1.43531 (Simulation time: 0 hr 1 min 15 sec) 
Heartbeat CPU  0 instructions:   43000002 cycles:   29964194 heartbeat IPC: 1.42415 cumulative IPC: 1.43505 (Simulation time: 0 hr 1 min 17 sec) 
Heartbeat CPU  0 instructions:   44000000 cycles:   30666324 heartbeat IPC: 1.42423 cumulative IPC: 1.43480 (Simulation time: 0 hr 1 min 19 sec) 
Heartbeat CPU  0 instructions:   45000003 cycles:   31368344 heartbeat IPC: 1.42447 cumulative IPC: 1.43457 (Simulation time: 0 hr 1 min 20 sec) 
Heartbeat CPU  0 instructions:   46000003 cycles:   32070272 heartbeat IPC: 1.42465 cumulative IPC: 1.43435 (Simulation time: 0 hr 1 min 22 sec) 
Heartbeat CPU  0 instructions:   47000000 cycles:   32772239 heartbeat IPC: 1.42456 cumulative IPC: 1.43414 (Simulation time: 0 hr 1 min 24 sec) 
Heartbeat CPU  0 instructions:   48000000 cycles:   33474582 heartbeat IPC: 1.42381 cumulative IPC: 1.43392 (Simulation time: 0 hr 1 min 26 sec) 
Heartbeat CPU  0 instructions:   49000000 cycles:   34176347 heartbeat IPC: 1.42498 cumulative IPC: 1.43374 (Simulation time: 0 hr 1 min 28 sec) 
Heartbeat CPU  0 instructions:   50000000 cycles:   34878445 heartbeat IPC: 1.42430 cumulative IPC: 1.43355 (Simulation time: 0 hr 1 min 30 sec) 
Heartbeat CPU  0 instructions:   51000000 cycles:   35580726 heartbeat IPC: 1.42393 cumulative IPC: 1.43336 (Simulation time: 0 hr 1 min 31 sec) 
Heartbeat CPU  0 instructions:   52000000 cycles:   36282620 heartbeat IPC: 1.42472 cumulative IPC: 1.43319 (Simulation time: 0 hr 1 min 33 sec) 
Heartbeat CPU  0 instructions:   53000000 cycles:   36984739 heartbeat IPC: 1.42426 cumulative IPC: 1.43302 (Simulation time: 0 hr 1 min 35 sec) 
Heartbeat CPU  0 instructions:   54000001 cycles:   37686587 heartbeat IPC: 1.42481 cumulative IPC: 1.43287 (Simulation time: 0 hr 1 min 37 sec) 
Heartbeat CPU  0 instructions:   55000001 cycles:   38388629 heartbeat IPC: 1.42442 cumulative IPC: 1.43272 (Simulation time: 0 hr 1 min 39 sec) 
Heartbeat CPU  0 instructions:   56000000 cycles:   39090851 heartbeat IPC: 1.42405 cumulative IPC: 1.43256 (Simulation time: 0 hr 1 min 40 sec) 
Heartbeat CPU  0 instructions:   57000000 cycles:   39793073 heartbeat IPC: 1.42405 cumulative IPC: 1.43241 (Simulation time: 0 hr 1 min 42 sec) 
Heartbeat CPU  0 instructions:   58000003 cycles:   40495091 heartbeat IPC: 1.42447 cumulative IPC: 1.43227 (Simulation time: 0 hr 1 min 44 sec) 
Heartbeat CPU  0 instructions:   59000000 cycles:   41196985 heartbeat IPC: 1.42471 cumulative IPC: 1.43214 (Simulation time: 0 hr 1 min 46 sec) 
Heartbeat CPU  0 instructions:   60000000 cycles:   41899208 heartbeat IPC: 1.42405 cumulative IPC: 1.43201 (Simulation time: 0 hr 1 min 48 sec) 
Heartbeat CPU  0 instructions:   61000000 cycles:   42601153 heartbeat IPC: 1.42461 cumulative IPC: 1.43189 (Simulation time: 0 hr 1 min 49 sec) 
Heartbeat CPU  0 instructions:   62000002 cycles:   43303091 heartbeat IPC: 1.42463 cumulative IPC: 1.43177 (Simulation time: 0 hr 1 min 51 sec) 
Heartbeat CPU  0 instructions:   63000000 cycles:   43947876 heartbeat IPC: 1.55090 cumulative IPC: 1.43352 (Simulation time: 0 hr 1 min 53 sec) 
Heartbeat CPU  0 instructions:   64000000 cycles:   44596574 heartbeat IPC: 1.54155 cumulative IPC: 1.43509 (Simulation time: 0 hr 1 min 55 sec) 
Heartbeat CPU  0 instructions:   65000000 cycles:   45298459 heartbeat IPC: 1.42473 cumulative IPC: 1.43493 (Simulation time: 0 hr 1 min 57 sec) 
Heartbeat CPU  0 instructions:   66000001 cycles:   46000260 heartbeat IPC: 1.42491 cumulative IPC: 1.43477 (Simulation time: 0 hr 1 min 58 sec) 
Heartbeat CPU  0 instructions:   67000002 cycles:   46702156 heartbeat IPC: 1.42471 cumulative IPC: 1.43462 (Simulation time: 0 hr 2 min 0 sec) 
Heartbeat CPU  0 instructions:   68000000 cycles:   47404324 heartbeat IPC: 1.42416 cumulative IPC: 1.43447 (Simulation time: 0 hr 2 min 2 sec) 
Heartbeat CPU  0 instructions:   69000000 cycles:   48106356 heartbeat IPC: 1.42444 cumulative IPC: 1.43432 (Simulation time: 0 hr 2 min 4 sec) 
Heartbeat CPU  0 instructions:   70000002 cycles:   48808267 heartbeat IPC: 1.42468 cumulative IPC: 1.43418 (Simulation time: 0 hr 2 min 6 sec) 
Heartbeat CPU  0 instructions:   71000003 cycles:   49510634 heartbeat IPC: 1.42376 cumulative IPC: 1.43404 (Simulation time: 0 hr 2 min 7 sec) 
Heartbeat CPU  0 instructions:   72000000 cycles:   50212520 heartbeat IPC: 1.42473 cumulative IPC: 1.43391 (Simulation time: 0 hr 2 min 9 sec) 
Heartbeat CPU  0 instructions:   73000001 cycles:   50914429 heartbeat IPC: 1.42469 cumulative IPC: 1.43378 (Simulation time: 0 hr 2 min 11 sec) 
Heartbeat CPU  0 instructions:   74000003 cycles:   51616532 heartbeat IPC: 1.42430 cumulative IPC: 1.43365 (Simulation time: 0 hr 2 min 13 sec) 
Heartbeat CPU  0 instructions:   75000002 cycles:   52318979 heartbeat IPC: 1.42359 cumulative IPC: 1.43351 (Simulation time: 0 hr 2 min 15 sec) 
Heartbeat CPU  0 instructions:   76000000 cycles:   53020930 heartbeat IPC: 1.42460 cumulative IPC: 1.43340 (Simulation time: 0 hr 2 min 16 sec) 
Heartbeat CPU  0 instructions:   77000003 cycles:   53723321 heartbeat IPC: 1.42371 cumulative IPC: 1.43327 (Simulation time: 0 hr 2 min 18 sec) 
Heartbeat CPU  0 instructions:   78000001 cycles:   54425649 heartbeat IPC: 1.42383 cumulative IPC: 1.43315 (Simulation time: 0 hr 2 min 20 sec) 
Heartbeat CPU  0 instructions:   79000001 cycles:   55127327 heartbeat IPC: 1.42516 cumulative IPC: 1.43305 (Simulation time: 0 hr 2 min 22 sec) 
Heartbeat CPU  0 instructions:   80000000 cycles:   55829158 heartbeat IPC: 1.42484 cumulative IPC: 1.43294 (Simulation time: 0 hr 2 min 24 sec) 
Heartbeat CPU  0 instructions:   81000002 cycles:   56531299 heartbeat IPC: 1.42422 cumulative IPC: 1.43283 (Simulation time: 0 hr 2 min 25 sec) 
Heartbeat CPU  0 instructions:   82000003 cycles:   57233308 heartbeat IPC: 1.42448 cumulative IPC: 1.43273 (Simulation time: 0 hr 2 min 27 sec) 
Heartbeat CPU  0 instructions:   83000001 cycles:   57935376 heartbeat IPC: 1.42436 cumulative IPC: 1.43263 (Simulation time: 0 hr 2 min 29 sec) 
Heartbeat CPU  0 instructions:   84000000 cycles:   58637354 heartbeat IPC: 1.42454 cumulative IPC: 1.43253 (Simulation time: 0 hr 2 min 31 sec) 
Heartbeat CPU  0 instructions:   85000000 cycles:   59325247 heartbeat IPC: 1.45371 cumulative IPC: 1.43278 (Simulation time: 0 hr 2 min 33 sec) 
Heartbeat CPU  0 instructions:   86000002 cycles:   59930035 heartbeat IPC: 1.65348 cumulative IPC: 1.43501 (Simulation time: 0 hr 2 min 34 sec) 
Heartbeat CPU  0 instructions:   87000002 cycles:   60632290 heartbeat IPC: 1.42398 cumulative IPC: 1.43488 (Simulation time: 0 hr 2 min 36 sec) 
Heartbeat CPU  0 instructions:   88000000 cycles:   61334630 heartbeat IPC: 1.42381 cumulative IPC: 1.43475 (Simulation time: 0 hr 2 min 38 sec) 
Heartbeat CPU  0 instructions:   89000001 cycles:   62036434 heartbeat IPC: 1.42490 cumulative IPC: 1.43464 (Simulation time: 0 hr 2 min 40 sec) 
Heartbeat CPU  0 instructions:   90000003 cycles:   62738559 heartbeat IPC: 1.42425 cumulative IPC: 1.43452 (Simulation time: 0 hr 2 min 42 sec) 
Heartbeat CPU  0 instructions:   91000003 cycles:   63440723 heartbeat IPC: 1.42417 cumulative IPC: 1.43441 (Simulation time: 0 hr 2 min 44 sec) 
Heartbeat CPU  0 instructions:   92000000 cycles:   64142671 heartbeat IPC: 1.42460 cumulative IPC: 1.43430 (Simulation time: 0 hr 2 min 45 sec) 
Heartbeat CPU  0 instructions:   93000002 cycles:   64844713 heartbeat IPC: 1.42442 cumulative IPC: 1.43420 (Simulation time: 0 hr 2 min 47 sec) 
Heartbeat CPU  0 instructions:   94000002 cycles:   65546531 heartbeat IPC: 1.42487 cumulative IPC: 1.43410 (Simulation time: 0 hr 2 min 49 sec) 
Heartbeat CPU  0 instructions:   95000003 cycles:   66248462 heartbeat IPC: 1.42464 cumulative IPC: 1.43400 (Simulation time: 0 hr 2 min 51 sec) 
Heartbeat CPU  0 instructions:   96000000 cycles:   66950536 heartbeat IPC: 1.42435 cumulative IPC: 1.43389 (Simulation time: 0 hr 2 min 53 sec) 
Heartbeat CPU  0 instructions:   97000000 cycles:   67652643 heartbeat IPC: 1.42428 cumulative IPC: 1.43379 (Simulation time: 0 hr 2 min 55 sec) 
Heartbeat CPU  0 instructions:   98000002 cycles:   68354571 heartbeat IPC: 1.42465 cumulative IPC: 1.43370 (Simulation time: 0 hr 2 min 56 sec) 
Heartbeat CPU  0 instructions:   99000003 cycles:   69056563 heartbeat IPC: 1.42452 cumulative IPC: 1.43361 (Simulation time: 0 hr 2 min 58 sec) 
Heartbeat CPU  0 instructions:  100000000 cycles:   69758732 heartbeat IPC: 1.42415 cumulative IPC: 1.43351 (Simulation time: 0 hr 3 min 0 sec) 

Warmup complete CPU  0 instructions:  100000001 cycles:   69758752 (Simulation time: 0 hr 3 min 0 sec) 

Heartbeat CPU  0 instructions:  101000000 cycles:   71659742 heartbeat IPC: 0.52604 cumulative IPC: 0.52604 (Simulation time: 0 hr 3 min 2 sec) 
Heartbeat CPU  0 instructions:  102000003 cycles:   73392082 heartbeat IPC: 0.57726 cumulative IPC: 0.55046 (Simulation time: 0 hr 3 min 4 sec) 
Heartbeat CPU  0 instructions:  103000003 cycles:   75235444 heartbeat IPC: 0.54249 cumulative IPC: 0.54778 (Simulation time: 0 hr 3 min 6 sec) 
Heartbeat CPU  0 instructions:  104000000 cycles:   77126283 heartbeat IPC: 0.52886 cumulative IPC: 0.54292 (Simulation time: 0 hr 3 min 9 sec) 
Heartbeat CPU  0 instructions:  105000002 cycles:   78937621 heartbeat IPC: 0.55208 cumulative IPC: 0.54473 (Simulation time: 0 hr 3 min 11 sec) 
Heartbeat CPU  0 instructions:  106000000 cycles:   80709387 heartbeat IPC: 0.56441 cumulative IPC: 0.54791 (Simulation time: 0 hr 3 min 13 sec) 
Heartbeat CPU  0 instructions:  107000003 cycles:   82595804 heartbeat IPC: 0.53011 cumulative IPC: 0.54530 (Simulation time: 0 hr 3 min 15 sec) 
Heartbeat CPU  0 instructions:  108000000 cycles:   93317707 heartbeat IPC: 0.09327 cumulative IPC: 0.33957 (Simulation time: 0 hr 3 min 18 sec) 
Heartbeat CPU  0 instructions:  109000003 cycles:  100056574 heartbeat IPC: 0.14839 cumulative IPC: 0.29705 (Simulation time: 0 hr 3 min 20 sec) 
Heartbeat CPU  0 instructions:  110000001 cycles:  101944538 heartbeat IPC: 0.52967 cumulative IPC: 0.31070 (Simulation time: 0 hr 3 min 22 sec) 
Heartbeat CPU  0 instructions:  111000000 cycles:  103839205 heartbeat IPC: 0.52780 cumulative IPC: 0.32277 (Simulation time: 0 hr 3 min 24 sec) 
Heartbeat CPU  0 instructions:  112000000 cycles:  105583649 heartbeat IPC: 0.57325 cumulative IPC: 0.33496 (Simulation time: 0 hr 3 min 26 sec) 
Heartbeat CPU  0 instructions:  113000000 cycles:  107429837 heartbeat IPC: 0.54166 cumulative IPC: 0.34509 (Simulation time: 0 hr 3 min 28 sec) 
Heartbeat CPU  0 instructions:  114000000 cycles:  109334249 heartbeat IPC: 0.52510 cumulative IPC: 0.35375 (Simulation time: 0 hr 3 min 30 sec) 
Heartbeat CPU  0 instructions:  115000001 cycles:  111146186 heartbeat IPC: 0.55190 cumulative IPC: 0.36243 (Simulation time: 0 hr 3 min 33 sec) 
Heartbeat CPU  0 instructions:  116000000 cycles:  112917194 heartbeat IPC: 0.56465 cumulative IPC: 0.37073 (Simulation time: 0 hr 3 min 35 sec) 
Heartbeat CPU  0 instructions:  117000003 cycles:  114810538 heartbeat IPC: 0.52817 cumulative IPC: 0.37734 (Simulation time: 0 hr 3 min 37 sec) 
Heartbeat CPU  0 instructions:  118000002 cycles:  116690317 heartbeat IPC: 0.53198 cumulative IPC: 0.38354 (Simulation time: 0 hr 3 min 39 sec) 
Heartbeat CPU  0 instructions:  119000002 cycles:  118410792 heartbeat IPC: 0.58123 cumulative IPC: 0.39053 (Simulation time: 0 hr 3 min 41 sec) 
Heartbeat CPU  0 instructions:  120000000 cycles:  120291568 heartbeat IPC: 0.53169 cumulative IPC: 0.39578 (Simulation time: 0 hr 3 min 43 sec) 
Heartbeat CPU  0 instructions:  121000003 cycles:  122183203 heartbeat IPC: 0.52864 cumulative IPC: 0.40058 (Simulation time: 0 hr 3 min 45 sec) 
Heartbeat CPU  0 instructions:  122000003 cycles:  123938471 heartbeat IPC: 0.56971 cumulative IPC: 0.40606 (Simulation time: 0 hr 3 min 47 sec) 
Heartbeat CPU  0 instructions:  123000002 cycles:  125766752 heartbeat IPC: 0.54696 cumulative IPC: 0.41066 (Simulation time: 0 hr 3 min 49 sec) 
Heartbeat CPU  0 instructions:  124000000 cycles:  127663497 heartbeat IPC: 0.52722 cumulative IPC: 0.41447 (Simulation time: 0 hr 3 min 52 sec) 
Heartbeat CPU  0 instructions:  125000000 cycles:  129497678 heartbeat IPC: 0.54520 cumulative IPC: 0.41849 (Simulation time: 0 hr 3 min 54 sec) 
Heartbeat CPU  0 instructions:  126000002 cycles:  131266582 heartbeat IPC: 0.56532 cumulative IPC: 0.42271 (Simulation time: 0 hr 3 min 56 sec) 
Heartbeat CPU  0 instructions:  127000002 cycles:  133278511 heartbeat IPC: 0.49704 cumulative IPC: 0.42506 (Simulation time: 0 hr 3 min 58 sec) 
Heartbeat CPU  0 instructions:  128000000 cycles:  135161165 heartbeat IPC: 0.53116 cumulative IPC: 0.42812 (Simulation time: 0 hr 4 min 0 sec) 
Heartbeat CPU  0 instructions:  129000001 cycles:  136878896 heartbeat IPC: 0.58216 cumulative IPC: 0.43206 (Simulation time: 0 hr 4 min 2 sec) 
Heartbeat CPU  0 instructions:  130000000 cycles:  142385667 heartbeat IPC: 0.18159 cumulative IPC: 0.41307 (Simulation time: 0 hr 4 min 4 sec) 
Heartbeat CPU  0 instructions:  131000003 cycles:  154501626 heartbeat IPC: 0.08254 cumulative IPC: 0.36581 (Simulation time: 0 hr 4 min 7 sec) 
Heartbeat CPU  0 instructions:  132000000 cycles:  156261493 heartbeat IPC: 0.56822 cumulative IPC: 0.36993 (Simulation time: 0 hr 4 min 9 sec) 
Heartbeat CPU  0 instructions:  133000000 cycles:  158095583 heartbeat IPC: 0.54523 cumulative IPC: 0.37357 (Simulation time: 0 hr 4 min 11 sec) 
Heartbeat CPU  0 instructions:  134000000 cycles:  159992562 heartbeat IPC: 0.52715 cumulative IPC: 0.37680 (Simulation time: 0 hr 4 min 13 sec) 
Heartbeat CPU  0 instructions:  135000000 cycles:  161825696 heartbeat IPC: 0.54551 cumulative IPC: 0.38016 (Simulation time: 0 hr 4 min 15 sec) 
Heartbeat CPU  0 instructions:  136000000 cycles:  163583460 heartbeat IPC: 0.56890 cumulative IPC: 0.38369 (Simulation time: 0 hr 4 min 18 sec) 
Heartbeat CPU  0 instructions:  137000002 cycles:  165478555 heartbeat IPC: 0.52768 cumulative IPC: 0.38654 (Simulation time: 0 hr 4 min 20 sec) 
Heartbeat CPU  0 instructions:  138000001 cycles:  167364452 heartbeat IPC: 0.53025 cumulative IPC: 0.38932 (Simulation time: 0 hr 4 min 22 sec) 
Heartbeat CPU  0 instructions:  139000001 cycles:  169083487 heartbeat IPC: 0.58172 cumulative IPC: 0.39265 (Simulation time: 0 hr 4 min 24 sec) 
Heartbeat CPU  0 instructions:  140000000 cycles:  170965736 heartbeat IPC: 0.53128 cumulative IPC: 0.39523 (Simulation time: 0 hr 4 min 26 sec) 
Heartbeat CPU  0 instructions:  141000000 cycles:  172860807 heartbeat IPC: 0.52768 cumulative IPC: 0.39766 (Simulation time: 0 hr 4 min 28 sec) 
Heartbeat CPU  0 instructions:  142000001 cycles:  174632077 heartbeat IPC: 0.56457 cumulative IPC: 0.40048 (Simulation time: 0 hr 4 min 30 sec) 
Heartbeat CPU  0 instructions:  143000001 cycles:  176443886 heartbeat IPC: 0.55193 cumulative IPC: 0.40306 (Simulation time: 0 hr 4 min 32 sec) 
Heartbeat CPU  0 instructions:  144000000 cycles:  178339565 heartbeat IPC: 0.52751 cumulative IPC: 0.40523 (Simulation time: 0 hr 4 min 34 sec) 
Heartbeat CPU  0 instructions:  145000000 cycles:  180190217 heartbeat IPC: 0.54035 cumulative IPC: 0.40749 (Simulation time: 0 hr 4 min 37 sec) 
Heartbeat CPU  0 instructions:  146000002 cycles:  181931932 heartbeat IPC: 0.57415 cumulative IPC: 0.41008 (Simulation time: 0 hr 4 min 39 sec) 
Heartbeat CPU  0 instructions:  147000003 cycles:  183824844 heartbeat IPC: 0.52829 cumulative IPC: 0.41204 (Simulation time: 0 hr 4 min 41 sec) 
Heartbeat CPU  0 instructions:  148000000 cycles:  185711914 heartbeat IPC: 0.52992 cumulative IPC: 0.41396 (Simulation time: 0 hr 4 min 43 sec) 
Heartbeat CPU  0 instructions:  149000002 cycles:  187438652 heartbeat IPC: 0.57913 cumulative IPC: 0.41638 (Simulation time: 0 hr 4 min 45 sec) 
Heartbeat CPU  0 instructions:  150000003 cycles:  189308191 heartbeat IPC: 0.53489 cumulative IPC: 0.41824 (Simulation time: 0 hr 4 min 47 sec) 
Heartbeat CPU  0 instructions:  151000003 cycles:  191197369 heartbeat IPC: 0.52933 cumulative IPC: 0.41997 (Simulation time: 0 hr 4 min 49 sec) 
Heartbeat CPU  0 instructions:  152000000 cycles:  193000341 heartbeat IPC: 0.55464 cumulative IPC: 0.42194 (Simulation time: 0 hr 4 min 51 sec) 
Heartbeat CPU  0 instructions:  153000003 cycles:  205799849 heartbeat IPC: 0.07813 cumulative IPC: 0.38959 (Simulation time: 0 hr 4 min 54 sec) 
Heartbeat CPU  0 instructions:  154000000 cycles:  210721639 heartbeat IPC: 0.20318 cumulative IPC: 0.38308 (Simulation time: 0 hr 4 min 56 sec) 
Heartbeat CPU  0 instructions:  155000000 cycles:  212574424 heartbeat IPC: 0.53973 cumulative IPC: 0.38511 (Simulation time: 0 hr 4 min 58 sec) 
Heartbeat CPU  0 instructions:  156000000 cycles:  214314608 heartbeat IPC: 0.57465 cumulative IPC: 0.38739 (Simulation time: 0 hr 5 min 0 sec) 
Heartbeat CPU  0 instructions:  157000001 cycles:  216208027 heartbeat IPC: 0.52815 cumulative IPC: 0.38921 (Simulation time: 0 hr 5 min 2 sec) 
Heartbeat CPU  0 instructions:  158000001 cycles:  218097345 heartbeat IPC: 0.52929 cumulative IPC: 0.39100 (Simulation time: 0 hr 5 min 4 sec) 
Heartbeat CPU  0 instructions:  159000000 cycles:  219822487 heartbeat IPC: 0.57966 cumulative IPC: 0.39317 (Simulation time: 0 hr 5 min 7 sec) 
Heartbeat CPU  0 instructions:  160000000 cycles:  221696071 heartbeat IPC: 0.53374 cumulative IPC: 0.39490 (Simulation time: 0 hr 5 min 9 sec) 
Heartbeat CPU  0 instructions:  161000003 cycles:  223592358 heartbeat IPC: 0.52735 cumulative IPC: 0.39653 (Simulation time: 0 hr 5 min 11 sec) 
Heartbeat CPU  0 instructions:  162000000 cycles:  225381626 heartbeat IPC: 0.55889 cumulative IPC: 0.39840 (Simulation time: 0 hr 5 min 13 sec) 
Heartbeat CPU  0 instructions:  163000003 cycles:  227177537 heartbeat IPC: 0.55682 cumulative IPC: 0.40021 (Simulation time: 0 hr 5 min 15 sec) 
Heartbeat CPU  0 instructions:  164000000 cycles:  229069168 heartbeat IPC: 0.52864 cumulative IPC: 0.40173 (Simulation time: 0 hr 5 min 17 sec) 
Heartbeat CPU  0 instructions:  165000000 cycles:  230944250 heartbeat IPC: 0.53331 cumulative IPC: 0.40326 (Simulation time: 0 hr 5 min 19 sec) 
Heartbeat CPU  0 instructions:  166000001 cycles:  232665852 heartbeat IPC: 0.58085 cumulative IPC: 0.40514 (Simulation time: 0 hr 5 min 21 sec) 
Heartbeat CPU  0 instructions:  167000000 cycles:  234554134 heartbeat IPC: 0.52958 cumulative IPC: 0.40656 (Simulation time: 0 hr 5 min 23 sec) 
Heartbeat CPU  0 instructions:  168000000 cycles:  236445041 heartbeat IPC: 0.52885 cumulative IPC: 0.40795 (Simulation time: 0 hr 5 min 26 sec) 
Heartbeat CPU  0 instructions:  169000001 cycles:  238178944 heartbeat IPC: 0.57673 cumulative IPC: 0.40969 (Simulation time: 0 hr 5 min 28 sec) 
Heartbeat CPU  0 instructions:  170000002 cycles:  240033099 heartbeat IPC: 0.53933 cumulative IPC: 0.41110 (Simulation time: 0 hr 5 min 30 sec) 
Heartbeat CPU  0 instructions:  171000001 cycles:  241930129 heartbeat IPC: 0.52714 cumulative IPC: 0.41238 (Simulation time: 0 hr 5 min 32 sec) 
Heartbeat CPU  0 instructions:  172000000 cycles:  243738575 heartbeat IPC: 0.55296 cumulative IPC: 0.41384 (Simulation time: 0 hr 5 min 34 sec) 
Heartbeat CPU  0 instructions:  173000000 cycles:  245517290 heartbeat IPC: 0.56220 cumulative IPC: 0.41534 (Simulation time: 0 hr 5 min 36 sec) 
Heartbeat CPU  0 instructions:  174000003 cycles:  247411349 heartbeat IPC: 0.52797 cumulative IPC: 0.41654 (Simulation time: 0 hr 5 min 38 sec) 
Heartbeat CPU  0 instructions:  175000000 cycles:  254581800 heartbeat IPC: 0.13946 cumulative IPC: 0.40579 (Simulation time: 0 hr 5 min 40 sec) 
Heartbeat CPU  0 instructions:  176000000 cycles:  264847886 heartbeat IPC: 0.09741 cumulative IPC: 0.38957 (Simulation time: 0 hr 5 min 43 sec) 
Heartbeat CPU  0 instructions:  177000001 cycles:  266811588 heartbeat IPC: 0.50924 cumulative IPC: 0.39076 (Simulation time: 0 hr 5 min 45 sec) 
Heartbeat CPU  0 instructions:  178000003 cycles:  268858712 heartbeat IPC: 0.48849 cumulative IPC: 0.39176 (Simulation time: 0 hr 5 min 47 sec) 
Heartbeat CPU  0 instructions:  179000002 cycles:  270762646 heartbeat IPC: 0.52523 cumulative IPC: 0.39303 (Simulation time: 0 hr 5 min 49 sec) 
Heartbeat CPU  0 instructions:  180000000 cycles:  272646137 heartbeat IPC: 0.53093 cumulative IPC: 0.39431 (Simulation time: 0 hr 5 min 52 sec) 
Heartbeat CPU  0 instructions:  181000003 cycles:  274556724 heartbeat IPC: 0.52340 cumulative IPC: 0.39551 (Simulation time: 0 hr 5 min 54 sec) 
Heartbeat CPU  0 instructions:  182000003 cycles:  276383625 heartbeat IPC: 0.54738 cumulative IPC: 0.39685 (Simulation time: 0 hr 5 min 56 sec) 
Heartbeat CPU  0 instructions:  183000000 cycles:  278192033 heartbeat IPC: 0.55297 cumulative IPC: 0.39821 (Simulation time: 0 hr 5 min 58 sec) 
Heartbeat CPU  0 instructions:  184000000 cycles:  280099289 heartbeat IPC: 0.52431 cumulative IPC: 0.39935 (Simulation time: 0 hr 6 min 0 sec) 
Heartbeat CPU  0 instructions:  185000002 cycles:  281996727 heartbeat IPC: 0.52703 cumulative IPC: 0.40049 (Simulation time: 0 hr 6 min 2 sec) 
Heartbeat CPU  0 instructions:  186000001 cycles:  283753468 heartbeat IPC: 0.56924 cumulative IPC: 0.40188 (Simulation time: 0 hr 6 min 4 sec) 
Heartbeat CPU  0 instructions:  187000000 cycles:  285648877 heartbeat IPC: 0.52759 cumulative IPC: 0.40298 (Simulation time: 0 hr 6 min 7 sec) 
Heartbeat CPU  0 instructions:  188000000 cycles:  287558047 heartbeat IPC: 0.52379 cumulative IPC: 0.40404 (Simulation time: 0 hr 6 min 9 sec) 
Heartbeat CPU  0 instructions:  189000000 cycles:  289325633 heartbeat IPC: 0.56574 cumulative IPC: 0.40534 (Simulation time: 0 hr 6 min 11 sec) 
Heartbeat CPU  0 instructions:  190000000 cycles:  291190564 heartbeat IPC: 0.53621 cumulative IPC: 0.40645 (Simulation time: 0 hr 6 min 13 sec) 
Heartbeat CPU  0 instructions:  191000000 cycles:  293100457 heartbeat IPC: 0.52359 cumulative IPC: 0.40745 (Simulation time: 0 hr 6 min 15 sec) 
Heartbeat CPU  0 instructions:  192000000 cycles:  294941614 heartbeat IPC: 0.54314 cumulative IPC: 0.40856 (Simulation time: 0 hr 6 min 17 sec) 
Heartbeat CPU  0 instructions:  193000001 cycles:  296735158 heartbeat IPC: 0.55756 cumulative IPC: 0.40973 (Simulation time: 0 hr 6 min 19 sec) 
Heartbeat CPU  0 instructions:  194000000 cycles:  298645732 heartbeat IPC: 0.52340 cumulative IPC: 0.41068 (Simulation time: 0 hr 6 min 21 sec) 
Heartbeat CPU  0 instructions:  195000002 cycles:  300541509 heartbeat IPC: 0.52749 cumulative IPC: 0.41164 (Simulation time: 0 hr 6 min 24 sec) 
Heartbeat CPU  0 instructions:  196000000 cycles:  302293962 heartbeat IPC: 0.57063 cumulative IPC: 0.41284 (Simulation time: 0 hr 6 min 26 sec) 
Heartbeat CPU  0 instructions:  197000000 cycles:  304300068 heartbeat IPC: 0.49848 cumulative IPC: 0.41357 (Simulation time: 0 hr 6 min 28 sec) 
Heartbeat CPU  0 instructions:  198000003 cycles:  318616032 heartbeat IPC: 0.06985 cumulative IPC: 0.39380 (Simulation time: 0 hr 6 min 30 sec) 
Heartbeat CPU  0 instructions:  199000001 cycles:  321715431 heartbeat IPC: 0.32264 cumulative IPC: 0.39292 (Simulation time: 0 hr 6 min 33 sec) 
Heartbeat CPU  0 instructions:  200000000 cycles:  323586916 heartbeat IPC: 0.53433 cumulative IPC: 0.39397 (Simulation time: 0 hr 6 min 35 sec) 
Finished CPU 0 instructions: 100000000 cycles: 253828192 cumulative IPC: 0.39397 (Simulation time: 0 hr 6 min 35 sec) 

ChampSim completed all CPUs

[ROI Statistics]
Core_0_instructions 100000000
Core_0_cycles 253828192
Core_0_IPC 0.39397

Core_0_branch_prediction_accuracy 99.16976
Core_0_branch_MPKI 0.01138
Core_0_average_ROB_occupancy_at_mispredict 253.39367

Core_0_L1D_total_access 83653601
Core_0_L1D_total_hit 82811236
Core_0_L1D_total_miss 842365
Core_0_L1D_loads 34096603
Core_0_L1D_load_hit 34066308
Core_0_L1D_load_miss 30295
Core_0_L1D_RFOs 16681572
Core_0_L1D_RFO_hit 16517050
Core_0_L1D_RFO_miss 164522
Core_0_L1D_prefetches 32875426
Core_0_L1D_prefetch_hit 32227878
Core_0_L1D_prefetch_miss 647548
Core_0_L1D_writebacks 0
Core_0_L1D_writeback_hit 0
Core_0_L1D_writeback_miss 0
Core_0_L1D_prefetch_requested 81145064
Core_0_L1D_prefetch_issued 78609820
Core_0_L1D_prefetch_useful 1249349
Core_0_L1D_prefetch_useless 36778
Core_0_L1D_prefetch_late 2745
Core_0_L1D_average_miss_latency 662466.54080

Core_0_L1I_total_access 26513952
Core_0_L1I_total_hit 26513952
Core_0_L1I_total_miss 0
Core_0_L1I_loads 26513952
Core_0_L1I_load_hit 26513952
Core_0_L1I_load_miss 0
Core_0_L1I_RFOs 0
Core_0_L1I_RFO_hit 0
Core_0_L1I_RFO_miss 0
Core_0_L1I_prefetches 0
Core_0_L1I_prefetch_hit 0
Core_0_L1I_prefetch_miss 0
Core_0_L1I_writebacks 0
Core_0_L1I_writeback_hit 0
Core_0_L1I_writeback_miss 0
Core_0_L1I_prefetch_requested 0
Core_0_L1I_prefetch_issued 0
Core_0_L1I_prefetch_useful 0
Core_0_L1I_prefetch_useless 0
Core_0_L1I_prefetch_late 0
Core_0_L1I_average_miss_latency -nan

Core_0_L2C_total_access 1012681
Core_0_L2C_total_hit 469608
Core_0_L2C_total_miss 543073
Core_0_L2C_loads 27582
Core_0_L2C_load_hit 21226
Core_0_L2C_load_miss 6356
Core_0_L2C_RFOs 164430
Core_0_L2C_RFO_hit 286
Core_0_L2C_RFO_miss 164144
Core_0_L2C_prefetches 650338
Core_0_L2C_prefetch_hit 277972
Core_0_L2C_prefetch_miss 372366
Core_0_L2C_writebacks 170331
Core_0_L2C_writeback_hit 170124
Core_0_L2C_writeback_miss 207
Core_0_L2C_prefetch_requested 0
Core_0_L2C_prefetch_issued 0
Core_0_L2C_prefetch_useful 11765
Core_0_L2C_prefetch_useless 705262
Core_0_L2C_prefetch_late 0
Core_0_L2C_average_miss_latency 252.14698

Core_0_LLC_total_access 706706
Core_0_LLC_total_hit 150038
Core_0_LLC_total_miss 556668
Core_0_LLC_loads 6356
Core_0_LLC_load_hit 1617
Core_0_LLC_load_miss 4739
Core_0_LLC_RFOs 164144
Core_0_LLC_RFO_hit 27787
Core_0_LLC_RFO_miss 136357
Core_0_LLC_prefetches 372366
Core_0_LLC_prefetch_hit 92838
Core_0_LLC_prefetch_miss 279528
Core_0_LLC_writebacks 163840
Core_0_LLC_writeback_hit 27796
Core_0_LLC_writeback_miss 136044
Core_0_LLC_prefetch_requested 0
Core_0_LLC_prefetch_issued 0
Core_0_LLC_prefetch_useful 646
Core_0_LLC_prefetch_useless 569083
Core_0_LLC_prefetch_late 0
Core_0_LLC_average_miss_latency 176.83577

Core_0_major_page_fault 0
Core_0_minor_page_fault 8761

CPU 0 L1D next line prefetcher final stats
Channel_0_RQ_row_buffer_hit 100818
Channel_0_RQ_row_buffer_miss 319806
Channel_0_WQ_row_buffer_hit 16957
Channel_0_WQ_row_buffer_miss 118990
Channel_0_WQ_full 0
Channel_0_dbus_congested 142233

avg_congested_cycle 10
