*************************************************
   ChampSim Multicore Out-of-Order Simulator
   Last compiled: Dec 22 2023 17:31:02
*************************************************

trace_0 ./test_trace/436.cactusADM-1804B.champsimtrace.xz
CPU 0 L1D next line prefetcher
CPU 0 L2C IP-based stride prefetcher
Initialize SHIP state
LLC Next Line Prefetcher
warmup_instructions 100000000
simulation_instructions 100000000
champsim_seed 271

num_cpus 1
cpu_freq 4000
dram_io_freq 2400
page_size 4096
block_size 64
max_read_per_cycle 8
max_fill_per_cycle 1
dram_channels 1
dram_ranks 1
dram_banks 8
dram_rows 65536
dram_columns 128
dram_row_size 8
dram_size 4096
dram_pages 1048576

fetch_width 6
decode_width 6
exec_width 4
lq_width 2
sq_width 2
retire_width 4
scheduler_size 128
branch_mispredict_penalty 20
rob_size 256
lq_size 72
sq_size 56
num_instr_destinations_sparc 4
num_instr_destinations 2
num_instr_sources 4

itlb_set 16
itlb_way 8
itlb_rq_size 16
itlb_wq_size 16
itlb_pq_size 0
itlb_mshr_size 8
itlb_latency 1

dtlb_set 16
dtlb_way 4
dtlb_rq_size 16
dtlb_wq_size 16
dtlb_pq_size 0
dtlb_mshr_size 8
dtlb_latency 1

stlb_set 128
stlb_way 12
stlb_rq_size 32
stlb_wq_size 32
stlb_pq_size 0
stlb_mshr_size 16
stlb_latency 8

l1i_size 32
l1i_set 64
l1i_way 8
l1i_rq_size 64
l1i_wq_size 64
l1i_pq_size 8
l1i_mshr_size 8
l1i_latency 1

l1d_size 32
l1d_set 64
l1d_way 8
l1d_rq_size 64
l1d_wq_size 64
l1d_pq_size 8
l1d_mshr_size 16
l1d_latency 4

l2c_size 512
l2c_set 1024
l2c_way 8
l2c_rq_size 32
l2c_wq_size 32
l2c_pq_size 16
l2c_mshr_size 32
l2c_latency 10

llc_size 2048
llc_set 2048
llc_way 16
llc_rq_size 32
llc_wq_size 32
llc_pq_size 32
llc_mshr_size 64
llc_latency 20

dram_channel_width 8
dram_wq_size 64
dram_rq_size 64
tRP 15
tRCD 15
tCAS 12.5
dram_dbus_turn_around_time 30
dram_write_high_wm 56
dram_write_low_wm 48
min_dram_writes_per_switch 16
dram_mtps 2400
dram_dbus_return_time 13


Heartbeat CPU  0 instructions:    1000000 cycles:     702167 heartbeat IPC: 1.42416 cumulative IPC: 1.42416 (Simulation time: 0 hr 0 min 2 sec) 
Heartbeat CPU  0 instructions:    2000000 cycles:    1404092 heartbeat IPC: 1.42465 cumulative IPC: 1.42441 (Simulation time: 0 hr 0 min 4 sec) 
Heartbeat CPU  0 instructions:    3000000 cycles:    2106232 heartbeat IPC: 1.42422 cumulative IPC: 1.42434 (Simulation time: 0 hr 0 min 6 sec) 
Heartbeat CPU  0 instructions:    4000000 cycles:    2808359 heartbeat IPC: 1.42424 cumulative IPC: 1.42432 (Simulation time: 0 hr 0 min 8 sec) 
Heartbeat CPU  0 instructions:    5000000 cycles:    3510266 heartbeat IPC: 1.42469 cumulative IPC: 1.42439 (Simulation time: 0 hr 0 min 9 sec) 
Heartbeat CPU  0 instructions:    6000000 cycles:    4212375 heartbeat IPC: 1.42428 cumulative IPC: 1.42437 (Simulation time: 0 hr 0 min 11 sec) 
Heartbeat CPU  0 instructions:    7000001 cycles:    4914631 heartbeat IPC: 1.42398 cumulative IPC: 1.42432 (Simulation time: 0 hr 0 min 13 sec) 
Heartbeat CPU  0 instructions:    8000000 cycles:    5616447 heartbeat IPC: 1.42487 cumulative IPC: 1.42439 (Simulation time: 0 hr 0 min 15 sec) 
Heartbeat CPU  0 instructions:    9000001 cycles:    6318674 heartbeat IPC: 1.42404 cumulative IPC: 1.42435 (Simulation time: 0 hr 0 min 17 sec) 
Heartbeat CPU  0 instructions:   10000000 cycles:    7020714 heartbeat IPC: 1.42442 cumulative IPC: 1.42436 (Simulation time: 0 hr 0 min 19 sec) 
Heartbeat CPU  0 instructions:   11000002 cycles:    7722674 heartbeat IPC: 1.42459 cumulative IPC: 1.42438 (Simulation time: 0 hr 0 min 21 sec) 
Heartbeat CPU  0 instructions:   12000000 cycles:    8424608 heartbeat IPC: 1.42463 cumulative IPC: 1.42440 (Simulation time: 0 hr 0 min 22 sec) 
Heartbeat CPU  0 instructions:   13000000 cycles:    9126946 heartbeat IPC: 1.42382 cumulative IPC: 1.42435 (Simulation time: 0 hr 0 min 24 sec) 
Heartbeat CPU  0 instructions:   14000002 cycles:    9829004 heartbeat IPC: 1.42439 cumulative IPC: 1.42436 (Simulation time: 0 hr 0 min 26 sec) 
Heartbeat CPU  0 instructions:   15000002 cycles:   10530694 heartbeat IPC: 1.42513 cumulative IPC: 1.42441 (Simulation time: 0 hr 0 min 28 sec) 
Heartbeat CPU  0 instructions:   16000000 cycles:   11233095 heartbeat IPC: 1.42369 cumulative IPC: 1.42436 (Simulation time: 0 hr 0 min 30 sec) 
Heartbeat CPU  0 instructions:   17000000 cycles:   11935410 heartbeat IPC: 1.42386 cumulative IPC: 1.42433 (Simulation time: 0 hr 0 min 32 sec) 
Heartbeat CPU  0 instructions:   18000001 cycles:   12594457 heartbeat IPC: 1.51734 cumulative IPC: 1.42920 (Simulation time: 0 hr 0 min 33 sec) 
Heartbeat CPU  0 instructions:   19000000 cycles:   13226728 heartbeat IPC: 1.58160 cumulative IPC: 1.43649 (Simulation time: 0 hr 0 min 35 sec) 
Heartbeat CPU  0 instructions:   20000000 cycles:   13928999 heartbeat IPC: 1.42395 cumulative IPC: 1.43585 (Simulation time: 0 hr 0 min 37 sec) 
Heartbeat CPU  0 instructions:   21000000 cycles:   14631162 heartbeat IPC: 1.42417 cumulative IPC: 1.43529 (Simulation time: 0 hr 0 min 39 sec) 
Heartbeat CPU  0 instructions:   22000002 cycles:   15333189 heartbeat IPC: 1.42445 cumulative IPC: 1.43480 (Simulation time: 0 hr 0 min 41 sec) 
Heartbeat CPU  0 instructions:   23000001 cycles:   16035318 heartbeat IPC: 1.42424 cumulative IPC: 1.43433 (Simulation time: 0 hr 0 min 43 sec) 
Heartbeat CPU  0 instructions:   24000000 cycles:   16737173 heartbeat IPC: 1.42479 cumulative IPC: 1.43393 (Simulation time: 0 hr 0 min 45 sec) 
Heartbeat CPU  0 instructions:   25000001 cycles:   17439284 heartbeat IPC: 1.42428 cumulative IPC: 1.43355 (Simulation time: 0 hr 0 min 46 sec) 
Heartbeat CPU  0 instructions:   26000003 cycles:   18141603 heartbeat IPC: 1.42386 cumulative IPC: 1.43317 (Simulation time: 0 hr 0 min 48 sec) 
Heartbeat CPU  0 instructions:   27000003 cycles:   18843570 heartbeat IPC: 1.42457 cumulative IPC: 1.43285 (Simulation time: 0 hr 0 min 50 sec) 
Heartbeat CPU  0 instructions:   28000000 cycles:   19545514 heartbeat IPC: 1.42461 cumulative IPC: 1.43255 (Simulation time: 0 hr 0 min 52 sec) 
Heartbeat CPU  0 instructions:   29000000 cycles:   20247699 heartbeat IPC: 1.42413 cumulative IPC: 1.43226 (Simulation time: 0 hr 0 min 54 sec) 
Heartbeat CPU  0 instructions:   30000003 cycles:   20949834 heartbeat IPC: 1.42423 cumulative IPC: 1.43199 (Simulation time: 0 hr 0 min 56 sec) 
Heartbeat CPU  0 instructions:   31000003 cycles:   21651521 heartbeat IPC: 1.42514 cumulative IPC: 1.43177 (Simulation time: 0 hr 0 min 58 sec) 
Heartbeat CPU  0 instructions:   32000000 cycles:   22353391 heartbeat IPC: 1.42476 cumulative IPC: 1.43155 (Simulation time: 0 hr 0 min 59 sec) 
Heartbeat CPU  0 instructions:   33000001 cycles:   23055872 heartbeat IPC: 1.42353 cumulative IPC: 1.43131 (Simulation time: 0 hr 1 min 1 sec) 
Heartbeat CPU  0 instructions:   34000000 cycles:   23757846 heartbeat IPC: 1.42455 cumulative IPC: 1.43111 (Simulation time: 0 hr 1 min 3 sec) 
Heartbeat CPU  0 instructions:   35000001 cycles:   24459737 heartbeat IPC: 1.42472 cumulative IPC: 1.43092 (Simulation time: 0 hr 1 min 5 sec) 
Heartbeat CPU  0 instructions:   36000000 cycles:   25161706 heartbeat IPC: 1.42456 cumulative IPC: 1.43075 (Simulation time: 0 hr 1 min 7 sec) 
Heartbeat CPU  0 instructions:   37000000 cycles:   25864060 heartbeat IPC: 1.42378 cumulative IPC: 1.43056 (Simulation time: 0 hr 1 min 9 sec) 
Heartbeat CPU  0 instructions:   38000001 cycles:   26566035 heartbeat IPC: 1.42455 cumulative IPC: 1.43040 (Simulation time: 0 hr 1 min 11 sec) 
Heartbeat CPU  0 instructions:   39000000 cycles:   27267959 heartbeat IPC: 1.42465 cumulative IPC: 1.43025 (Simulation time: 0 hr 1 min 13 sec) 
Heartbeat CPU  0 instructions:   40000000 cycles:   27969942 heartbeat IPC: 1.42454 cumulative IPC: 1.43011 (Simulation time: 0 hr 1 min 14 sec) 
Heartbeat CPU  0 instructions:   41000000 cycles:   28570986 heartbeat IPC: 1.66377 cumulative IPC: 1.43502 (Simulation time: 0 hr 1 min 16 sec) 
Heartbeat CPU  0 instructions:   42000002 cycles:   29261635 heartbeat IPC: 1.44792 cumulative IPC: 1.43533 (Simulation time: 0 hr 1 min 18 sec) 
Heartbeat CPU  0 instructions:   43000002 cycles:   29963798 heartbeat IPC: 1.42417 cumulative IPC: 1.43507 (Simulation time: 0 hr 1 min 20 sec) 
Heartbeat CPU  0 instructions:   44000000 cycles:   30665912 heartbeat IPC: 1.42427 cumulative IPC: 1.43482 (Simulation time: 0 hr 1 min 22 sec) 
Heartbeat CPU  0 instructions:   45000003 cycles:   31367906 heartbeat IPC: 1.42452 cumulative IPC: 1.43459 (Simulation time: 0 hr 1 min 24 sec) 
Heartbeat CPU  0 instructions:   46000003 cycles:   32069839 heartbeat IPC: 1.42464 cumulative IPC: 1.43437 (Simulation time: 0 hr 1 min 26 sec) 
Heartbeat CPU  0 instructions:   47000000 cycles:   32771802 heartbeat IPC: 1.42457 cumulative IPC: 1.43416 (Simulation time: 0 hr 1 min 28 sec) 
Heartbeat CPU  0 instructions:   48000000 cycles:   33474136 heartbeat IPC: 1.42382 cumulative IPC: 1.43394 (Simulation time: 0 hr 1 min 29 sec) 
Heartbeat CPU  0 instructions:   49000000 cycles:   34175874 heartbeat IPC: 1.42503 cumulative IPC: 1.43376 (Simulation time: 0 hr 1 min 31 sec) 
Heartbeat CPU  0 instructions:   50000000 cycles:   34877960 heartbeat IPC: 1.42433 cumulative IPC: 1.43357 (Simulation time: 0 hr 1 min 33 sec) 
Heartbeat CPU  0 instructions:   51000000 cycles:   35580234 heartbeat IPC: 1.42395 cumulative IPC: 1.43338 (Simulation time: 0 hr 1 min 35 sec) 
Heartbeat CPU  0 instructions:   52000000 cycles:   36282117 heartbeat IPC: 1.42474 cumulative IPC: 1.43321 (Simulation time: 0 hr 1 min 37 sec) 
Heartbeat CPU  0 instructions:   53000000 cycles:   36984241 heartbeat IPC: 1.42425 cumulative IPC: 1.43304 (Simulation time: 0 hr 1 min 39 sec) 
Heartbeat CPU  0 instructions:   54000001 cycles:   37686073 heartbeat IPC: 1.42484 cumulative IPC: 1.43289 (Simulation time: 0 hr 1 min 41 sec) 
Heartbeat CPU  0 instructions:   55000001 cycles:   38388096 heartbeat IPC: 1.42445 cumulative IPC: 1.43274 (Simulation time: 0 hr 1 min 43 sec) 
Heartbeat CPU  0 instructions:   56000000 cycles:   39090301 heartbeat IPC: 1.42408 cumulative IPC: 1.43258 (Simulation time: 0 hr 1 min 44 sec) 
Heartbeat CPU  0 instructions:   57000000 cycles:   39792524 heartbeat IPC: 1.42405 cumulative IPC: 1.43243 (Simulation time: 0 hr 1 min 46 sec) 
Heartbeat CPU  0 instructions:   58000003 cycles:   40494532 heartbeat IPC: 1.42449 cumulative IPC: 1.43229 (Simulation time: 0 hr 1 min 48 sec) 
Heartbeat CPU  0 instructions:   59000000 cycles:   41196420 heartbeat IPC: 1.42472 cumulative IPC: 1.43216 (Simulation time: 0 hr 1 min 50 sec) 
Heartbeat CPU  0 instructions:   60000000 cycles:   41898620 heartbeat IPC: 1.42410 cumulative IPC: 1.43203 (Simulation time: 0 hr 1 min 52 sec) 
Heartbeat CPU  0 instructions:   61000000 cycles:   42600564 heartbeat IPC: 1.42462 cumulative IPC: 1.43191 (Simulation time: 0 hr 1 min 54 sec) 
Heartbeat CPU  0 instructions:   62000002 cycles:   43302493 heartbeat IPC: 1.42465 cumulative IPC: 1.43179 (Simulation time: 0 hr 1 min 56 sec) 
Heartbeat CPU  0 instructions:   63000000 cycles:   43947317 heartbeat IPC: 1.55081 cumulative IPC: 1.43353 (Simulation time: 0 hr 1 min 58 sec) 
Heartbeat CPU  0 instructions:   64000000 cycles:   44596050 heartbeat IPC: 1.54147 cumulative IPC: 1.43510 (Simulation time: 0 hr 1 min 59 sec) 
Heartbeat CPU  0 instructions:   65000000 cycles:   45297933 heartbeat IPC: 1.42474 cumulative IPC: 1.43494 (Simulation time: 0 hr 2 min 1 sec) 
Heartbeat CPU  0 instructions:   66000001 cycles:   45999719 heartbeat IPC: 1.42494 cumulative IPC: 1.43479 (Simulation time: 0 hr 2 min 3 sec) 
Heartbeat CPU  0 instructions:   67000002 cycles:   46701586 heartbeat IPC: 1.42477 cumulative IPC: 1.43464 (Simulation time: 0 hr 2 min 5 sec) 
Heartbeat CPU  0 instructions:   68000000 cycles:   47403739 heartbeat IPC: 1.42419 cumulative IPC: 1.43449 (Simulation time: 0 hr 2 min 7 sec) 
Heartbeat CPU  0 instructions:   69000000 cycles:   48105742 heartbeat IPC: 1.42450 cumulative IPC: 1.43434 (Simulation time: 0 hr 2 min 9 sec) 
Heartbeat CPU  0 instructions:   70000002 cycles:   48807639 heartbeat IPC: 1.42471 cumulative IPC: 1.43420 (Simulation time: 0 hr 2 min 10 sec) 
Heartbeat CPU  0 instructions:   71000003 cycles:   49510006 heartbeat IPC: 1.42376 cumulative IPC: 1.43405 (Simulation time: 0 hr 2 min 12 sec) 
Heartbeat CPU  0 instructions:   72000000 cycles:   50211854 heartbeat IPC: 1.42481 cumulative IPC: 1.43392 (Simulation time: 0 hr 2 min 14 sec) 
Heartbeat CPU  0 instructions:   73000001 cycles:   50913739 heartbeat IPC: 1.42474 cumulative IPC: 1.43380 (Simulation time: 0 hr 2 min 16 sec) 
Heartbeat CPU  0 instructions:   74000003 cycles:   51615822 heartbeat IPC: 1.42434 cumulative IPC: 1.43367 (Simulation time: 0 hr 2 min 18 sec) 
Heartbeat CPU  0 instructions:   75000002 cycles:   52318237 heartbeat IPC: 1.42366 cumulative IPC: 1.43353 (Simulation time: 0 hr 2 min 20 sec) 
Heartbeat CPU  0 instructions:   76000000 cycles:   53020177 heartbeat IPC: 1.42462 cumulative IPC: 1.43342 (Simulation time: 0 hr 2 min 22 sec) 
Heartbeat CPU  0 instructions:   77000003 cycles:   53722560 heartbeat IPC: 1.42373 cumulative IPC: 1.43329 (Simulation time: 0 hr 2 min 23 sec) 
Heartbeat CPU  0 instructions:   78000001 cycles:   54424875 heartbeat IPC: 1.42386 cumulative IPC: 1.43317 (Simulation time: 0 hr 2 min 25 sec) 
Heartbeat CPU  0 instructions:   79000001 cycles:   55126543 heartbeat IPC: 1.42518 cumulative IPC: 1.43307 (Simulation time: 0 hr 2 min 27 sec) 
Heartbeat CPU  0 instructions:   80000000 cycles:   55828357 heartbeat IPC: 1.42488 cumulative IPC: 1.43296 (Simulation time: 0 hr 2 min 29 sec) 
Heartbeat CPU  0 instructions:   81000002 cycles:   56530479 heartbeat IPC: 1.42426 cumulative IPC: 1.43286 (Simulation time: 0 hr 2 min 31 sec) 
Heartbeat CPU  0 instructions:   82000003 cycles:   57232473 heartbeat IPC: 1.42452 cumulative IPC: 1.43275 (Simulation time: 0 hr 2 min 33 sec) 
Heartbeat CPU  0 instructions:   83000001 cycles:   57934524 heartbeat IPC: 1.42440 cumulative IPC: 1.43265 (Simulation time: 0 hr 2 min 35 sec) 
Heartbeat CPU  0 instructions:   84000000 cycles:   58636502 heartbeat IPC: 1.42454 cumulative IPC: 1.43255 (Simulation time: 0 hr 2 min 37 sec) 
Heartbeat CPU  0 instructions:   85000000 cycles:   59324376 heartbeat IPC: 1.45375 cumulative IPC: 1.43280 (Simulation time: 0 hr 2 min 38 sec) 
Heartbeat CPU  0 instructions:   86000002 cycles:   59929475 heartbeat IPC: 1.65263 cumulative IPC: 1.43502 (Simulation time: 0 hr 2 min 40 sec) 
Heartbeat CPU  0 instructions:   87000002 cycles:   60631719 heartbeat IPC: 1.42401 cumulative IPC: 1.43489 (Simulation time: 0 hr 2 min 42 sec) 
Heartbeat CPU  0 instructions:   88000000 cycles:   61334040 heartbeat IPC: 1.42385 cumulative IPC: 1.43477 (Simulation time: 0 hr 2 min 44 sec) 
Heartbeat CPU  0 instructions:   89000001 cycles:   62035836 heartbeat IPC: 1.42492 cumulative IPC: 1.43465 (Simulation time: 0 hr 2 min 46 sec) 
Heartbeat CPU  0 instructions:   90000003 cycles:   62737934 heartbeat IPC: 1.42431 cumulative IPC: 1.43454 (Simulation time: 0 hr 2 min 48 sec) 
Heartbeat CPU  0 instructions:   91000003 cycles:   63440081 heartbeat IPC: 1.42420 cumulative IPC: 1.43442 (Simulation time: 0 hr 2 min 49 sec) 
Heartbeat CPU  0 instructions:   92000000 cycles:   64142029 heartbeat IPC: 1.42460 cumulative IPC: 1.43432 (Simulation time: 0 hr 2 min 51 sec) 
Heartbeat CPU  0 instructions:   93000002 cycles:   64844066 heartbeat IPC: 1.42443 cumulative IPC: 1.43421 (Simulation time: 0 hr 2 min 53 sec) 
Heartbeat CPU  0 instructions:   94000002 cycles:   65545861 heartbeat IPC: 1.42492 cumulative IPC: 1.43411 (Simulation time: 0 hr 2 min 55 sec) 
Heartbeat CPU  0 instructions:   95000003 cycles:   66247784 heartbeat IPC: 1.42466 cumulative IPC: 1.43401 (Simulation time: 0 hr 2 min 57 sec) 
Heartbeat CPU  0 instructions:   96000000 cycles:   66949856 heartbeat IPC: 1.42435 cumulative IPC: 1.43391 (Simulation time: 0 hr 2 min 59 sec) 
Heartbeat CPU  0 instructions:   97000000 cycles:   67651938 heartbeat IPC: 1.42434 cumulative IPC: 1.43381 (Simulation time: 0 hr 3 min 1 sec) 
Heartbeat CPU  0 instructions:   98000002 cycles:   68353852 heartbeat IPC: 1.42468 cumulative IPC: 1.43372 (Simulation time: 0 hr 3 min 2 sec) 
Heartbeat CPU  0 instructions:   99000003 cycles:   69055809 heartbeat IPC: 1.42459 cumulative IPC: 1.43362 (Simulation time: 0 hr 3 min 4 sec) 
Heartbeat CPU  0 instructions:  100000000 cycles:   69757964 heartbeat IPC: 1.42418 cumulative IPC: 1.43353 (Simulation time: 0 hr 3 min 6 sec) 

Warmup complete CPU  0 instructions:  100000001 cycles:   69757984 (Simulation time: 0 hr 3 min 6 sec) 

Heartbeat CPU  0 instructions:  101000000 cycles:   71662580 heartbeat IPC: 0.52504 cumulative IPC: 0.52505 (Simulation time: 0 hr 3 min 8 sec) 
Heartbeat CPU  0 instructions:  102000003 cycles:   73399191 heartbeat IPC: 0.57584 cumulative IPC: 0.54927 (Simulation time: 0 hr 3 min 10 sec) 
Heartbeat CPU  0 instructions:  103000003 cycles:   75245015 heartbeat IPC: 0.54176 cumulative IPC: 0.54674 (Simulation time: 0 hr 3 min 12 sec) 
Heartbeat CPU  0 instructions:  104000000 cycles:   77138753 heartbeat IPC: 0.52805 cumulative IPC: 0.54195 (Simulation time: 0 hr 3 min 15 sec) 
Heartbeat CPU  0 instructions:  105000002 cycles:   78955902 heartbeat IPC: 0.55031 cumulative IPC: 0.54360 (Simulation time: 0 hr 3 min 17 sec) 
Heartbeat CPU  0 instructions:  106000000 cycles:   80731974 heartbeat IPC: 0.56304 cumulative IPC: 0.54675 (Simulation time: 0 hr 3 min 19 sec) 
Heartbeat CPU  0 instructions:  107000003 cycles:   82621353 heartbeat IPC: 0.52928 cumulative IPC: 0.54418 (Simulation time: 0 hr 3 min 21 sec) 
Heartbeat CPU  0 instructions:  108000000 cycles:   93341412 heartbeat IPC: 0.09328 cumulative IPC: 0.33922 (Simulation time: 0 hr 3 min 23 sec) 
Heartbeat CPU  0 instructions:  109000003 cycles:  100092538 heartbeat IPC: 0.14812 cumulative IPC: 0.29669 (Simulation time: 0 hr 3 min 26 sec) 
Heartbeat CPU  0 instructions:  110000001 cycles:  101981001 heartbeat IPC: 0.52953 cumulative IPC: 0.31034 (Simulation time: 0 hr 3 min 28 sec) 
Heartbeat CPU  0 instructions:  111000000 cycles:  103877343 heartbeat IPC: 0.52733 cumulative IPC: 0.32240 (Simulation time: 0 hr 3 min 30 sec) 
Heartbeat CPU  0 instructions:  112000000 cycles:  105623146 heartbeat IPC: 0.57280 cumulative IPC: 0.33459 (Simulation time: 0 hr 3 min 32 sec) 
Heartbeat CPU  0 instructions:  113000000 cycles:  107471479 heartbeat IPC: 0.54103 cumulative IPC: 0.34470 (Simulation time: 0 hr 3 min 34 sec) 
Heartbeat CPU  0 instructions:  114000000 cycles:  109378269 heartbeat IPC: 0.52444 cumulative IPC: 0.35335 (Simulation time: 0 hr 3 min 36 sec) 
Heartbeat CPU  0 instructions:  115000001 cycles:  111192620 heartbeat IPC: 0.55116 cumulative IPC: 0.36202 (Simulation time: 0 hr 3 min 38 sec) 
Heartbeat CPU  0 instructions:  116000000 cycles:  112966886 heartbeat IPC: 0.56361 cumulative IPC: 0.37029 (Simulation time: 0 hr 3 min 40 sec) 
Heartbeat CPU  0 instructions:  117000003 cycles:  114864343 heartbeat IPC: 0.52702 cumulative IPC: 0.37689 (Simulation time: 0 hr 3 min 42 sec) 
Heartbeat CPU  0 instructions:  118000002 cycles:  116747642 heartbeat IPC: 0.53098 cumulative IPC: 0.38306 (Simulation time: 0 hr 3 min 45 sec) 
Heartbeat CPU  0 instructions:  119000002 cycles:  118472322 heartbeat IPC: 0.57982 cumulative IPC: 0.39003 (Simulation time: 0 hr 3 min 47 sec) 
Heartbeat CPU  0 instructions:  120000000 cycles:  120356393 heartbeat IPC: 0.53076 cumulative IPC: 0.39527 (Simulation time: 0 hr 3 min 49 sec) 
Heartbeat CPU  0 instructions:  121000003 cycles:  122251443 heartbeat IPC: 0.52769 cumulative IPC: 0.40005 (Simulation time: 0 hr 3 min 51 sec) 
Heartbeat CPU  0 instructions:  122000003 cycles:  124010279 heartbeat IPC: 0.56856 cumulative IPC: 0.40551 (Simulation time: 0 hr 3 min 53 sec) 
Heartbeat CPU  0 instructions:  123000002 cycles:  125841525 heartbeat IPC: 0.54608 cumulative IPC: 0.41010 (Simulation time: 0 hr 3 min 55 sec) 
Heartbeat CPU  0 instructions:  124000000 cycles:  127740069 heartbeat IPC: 0.52672 cumulative IPC: 0.41392 (Simulation time: 0 hr 3 min 57 sec) 
Heartbeat CPU  0 instructions:  125000000 cycles:  129577166 heartbeat IPC: 0.54434 cumulative IPC: 0.41793 (Simulation time: 0 hr 3 min 59 sec) 
Heartbeat CPU  0 instructions:  126000002 cycles:  131348842 heartbeat IPC: 0.56444 cumulative IPC: 0.42214 (Simulation time: 0 hr 4 min 1 sec) 
Heartbeat CPU  0 instructions:  127000002 cycles:  133364648 heartbeat IPC: 0.49608 cumulative IPC: 0.42448 (Simulation time: 0 hr 4 min 3 sec) 
Heartbeat CPU  0 instructions:  128000000 cycles:  135250926 heartbeat IPC: 0.53014 cumulative IPC: 0.42753 (Simulation time: 0 hr 4 min 6 sec) 
Heartbeat CPU  0 instructions:  129000001 cycles:  136972486 heartbeat IPC: 0.58087 cumulative IPC: 0.43145 (Simulation time: 0 hr 4 min 8 sec) 
Heartbeat CPU  0 instructions:  130000000 cycles:  142471223 heartbeat IPC: 0.18186 cumulative IPC: 0.41258 (Simulation time: 0 hr 4 min 10 sec) 
Heartbeat CPU  0 instructions:  131000003 cycles:  154563851 heartbeat IPC: 0.08270 cumulative IPC: 0.36554 (Simulation time: 0 hr 4 min 12 sec) 
Heartbeat CPU  0 instructions:  132000000 cycles:  156325566 heartbeat IPC: 0.56763 cumulative IPC: 0.36965 (Simulation time: 0 hr 4 min 14 sec) 
Heartbeat CPU  0 instructions:  133000000 cycles:  158159919 heartbeat IPC: 0.54515 cumulative IPC: 0.37329 (Simulation time: 0 hr 4 min 17 sec) 
Heartbeat CPU  0 instructions:  134000000 cycles:  160058408 heartbeat IPC: 0.52673 cumulative IPC: 0.37652 (Simulation time: 0 hr 4 min 19 sec) 
Heartbeat CPU  0 instructions:  135000000 cycles:  161893156 heartbeat IPC: 0.54503 cumulative IPC: 0.37988 (Simulation time: 0 hr 4 min 21 sec) 
Heartbeat CPU  0 instructions:  136000000 cycles:  163653877 heartbeat IPC: 0.56795 cumulative IPC: 0.38340 (Simulation time: 0 hr 4 min 23 sec) 
Heartbeat CPU  0 instructions:  137000002 cycles:  165552282 heartbeat IPC: 0.52676 cumulative IPC: 0.38624 (Simulation time: 0 hr 4 min 25 sec) 
Heartbeat CPU  0 instructions:  138000001 cycles:  167440969 heartbeat IPC: 0.52947 cumulative IPC: 0.38901 (Simulation time: 0 hr 4 min 27 sec) 
Heartbeat CPU  0 instructions:  139000001 cycles:  169163598 heartbeat IPC: 0.58051 cumulative IPC: 0.39233 (Simulation time: 0 hr 4 min 29 sec) 
Heartbeat CPU  0 instructions:  140000000 cycles:  171051284 heartbeat IPC: 0.52975 cumulative IPC: 0.39489 (Simulation time: 0 hr 4 min 31 sec) 
Heartbeat CPU  0 instructions:  141000000 cycles:  172949952 heartbeat IPC: 0.52668 cumulative IPC: 0.39732 (Simulation time: 0 hr 4 min 34 sec) 
Heartbeat CPU  0 instructions:  142000001 cycles:  174724421 heartbeat IPC: 0.56355 cumulative IPC: 0.40013 (Simulation time: 0 hr 4 min 36 sec) 
Heartbeat CPU  0 instructions:  143000001 cycles:  176540502 heartbeat IPC: 0.55064 cumulative IPC: 0.40269 (Simulation time: 0 hr 4 min 38 sec) 
Heartbeat CPU  0 instructions:  144000000 cycles:  178440164 heartbeat IPC: 0.52641 cumulative IPC: 0.40485 (Simulation time: 0 hr 4 min 40 sec) 
Heartbeat CPU  0 instructions:  145000000 cycles:  180293936 heartbeat IPC: 0.53944 cumulative IPC: 0.40711 (Simulation time: 0 hr 4 min 42 sec) 
Heartbeat CPU  0 instructions:  146000002 cycles:  182038932 heartbeat IPC: 0.57307 cumulative IPC: 0.40969 (Simulation time: 0 hr 4 min 44 sec) 
Heartbeat CPU  0 instructions:  147000003 cycles:  183934101 heartbeat IPC: 0.52766 cumulative IPC: 0.41164 (Simulation time: 0 hr 4 min 46 sec) 
Heartbeat CPU  0 instructions:  148000000 cycles:  185823186 heartbeat IPC: 0.52936 cumulative IPC: 0.41356 (Simulation time: 0 hr 4 min 48 sec) 
Heartbeat CPU  0 instructions:  149000002 cycles:  187552436 heartbeat IPC: 0.57829 cumulative IPC: 0.41598 (Simulation time: 0 hr 4 min 50 sec) 
Heartbeat CPU  0 instructions:  150000003 cycles:  189425958 heartbeat IPC: 0.53375 cumulative IPC: 0.41782 (Simulation time: 0 hr 4 min 52 sec) 
Heartbeat CPU  0 instructions:  151000003 cycles:  191318874 heartbeat IPC: 0.52829 cumulative IPC: 0.41954 (Simulation time: 0 hr 4 min 55 sec) 
Heartbeat CPU  0 instructions:  152000000 cycles:  193124202 heartbeat IPC: 0.55391 cumulative IPC: 0.42151 (Simulation time: 0 hr 4 min 57 sec) 
Heartbeat CPU  0 instructions:  153000003 cycles:  205930500 heartbeat IPC: 0.07809 cumulative IPC: 0.38921 (Simulation time: 0 hr 4 min 59 sec) 
Heartbeat CPU  0 instructions:  154000000 cycles:  210861147 heartbeat IPC: 0.20281 cumulative IPC: 0.38270 (Simulation time: 0 hr 5 min 1 sec) 
Heartbeat CPU  0 instructions:  155000000 cycles:  212714627 heartbeat IPC: 0.53953 cumulative IPC: 0.38473 (Simulation time: 0 hr 5 min 3 sec) 
Heartbeat CPU  0 instructions:  156000000 cycles:  214455472 heartbeat IPC: 0.57443 cumulative IPC: 0.38701 (Simulation time: 0 hr 5 min 6 sec) 
Heartbeat CPU  0 instructions:  157000001 cycles:  216350437 heartbeat IPC: 0.52771 cumulative IPC: 0.38883 (Simulation time: 0 hr 5 min 8 sec) 
Heartbeat CPU  0 instructions:  158000001 cycles:  218241362 heartbeat IPC: 0.52884 cumulative IPC: 0.39062 (Simulation time: 0 hr 5 min 10 sec) 
Heartbeat CPU  0 instructions:  159000000 cycles:  219968572 heartbeat IPC: 0.57897 cumulative IPC: 0.39278 (Simulation time: 0 hr 5 min 12 sec) 
Heartbeat CPU  0 instructions:  160000000 cycles:  221844806 heartbeat IPC: 0.53298 cumulative IPC: 0.39451 (Simulation time: 0 hr 5 min 14 sec) 
Heartbeat CPU  0 instructions:  161000003 cycles:  223744900 heartbeat IPC: 0.52629 cumulative IPC: 0.39614 (Simulation time: 0 hr 5 min 16 sec) 
Heartbeat CPU  0 instructions:  162000000 cycles:  225537851 heartbeat IPC: 0.55774 cumulative IPC: 0.39800 (Simulation time: 0 hr 5 min 18 sec) 
Heartbeat CPU  0 instructions:  163000003 cycles:  227338881 heartbeat IPC: 0.55524 cumulative IPC: 0.39979 (Simulation time: 0 hr 5 min 20 sec) 
Heartbeat CPU  0 instructions:  164000000 cycles:  229234498 heartbeat IPC: 0.52753 cumulative IPC: 0.40131 (Simulation time: 0 hr 5 min 23 sec) 
Heartbeat CPU  0 instructions:  165000000 cycles:  231112869 heartbeat IPC: 0.53238 cumulative IPC: 0.40284 (Simulation time: 0 hr 5 min 25 sec) 
Heartbeat CPU  0 instructions:  166000001 cycles:  232839282 heartbeat IPC: 0.57924 cumulative IPC: 0.40471 (Simulation time: 0 hr 5 min 27 sec) 
Heartbeat CPU  0 instructions:  167000000 cycles:  234731475 heartbeat IPC: 0.52849 cumulative IPC: 0.40613 (Simulation time: 0 hr 5 min 29 sec) 
Heartbeat CPU  0 instructions:  168000000 cycles:  236625495 heartbeat IPC: 0.52798 cumulative IPC: 0.40751 (Simulation time: 0 hr 5 min 31 sec) 
Heartbeat CPU  0 instructions:  169000001 cycles:  238361610 heartbeat IPC: 0.57600 cumulative IPC: 0.40924 (Simulation time: 0 hr 5 min 33 sec) 
Heartbeat CPU  0 instructions:  170000002 cycles:  240218889 heartbeat IPC: 0.53842 cumulative IPC: 0.41065 (Simulation time: 0 hr 5 min 35 sec) 
Heartbeat CPU  0 instructions:  171000001 cycles:  242119861 heartbeat IPC: 0.52605 cumulative IPC: 0.41192 (Simulation time: 0 hr 5 min 37 sec) 
Heartbeat CPU  0 instructions:  172000000 cycles:  243930329 heartbeat IPC: 0.55234 cumulative IPC: 0.41338 (Simulation time: 0 hr 5 min 40 sec) 
Heartbeat CPU  0 instructions:  173000000 cycles:  245713155 heartbeat IPC: 0.56091 cumulative IPC: 0.41488 (Simulation time: 0 hr 5 min 42 sec) 
Heartbeat CPU  0 instructions:  174000003 cycles:  247611698 heartbeat IPC: 0.52672 cumulative IPC: 0.41607 (Simulation time: 0 hr 5 min 44 sec) 
Heartbeat CPU  0 instructions:  175000000 cycles:  254776254 heartbeat IPC: 0.13958 cumulative IPC: 0.40537 (Simulation time: 0 hr 5 min 46 sec) 
Heartbeat CPU  0 instructions:  176000000 cycles:  265051823 heartbeat IPC: 0.09732 cumulative IPC: 0.38916 (Simulation time: 0 hr 5 min 48 sec) 
Heartbeat CPU  0 instructions:  177000001 cycles:  267015477 heartbeat IPC: 0.50926 cumulative IPC: 0.39035 (Simulation time: 0 hr 5 min 51 sec) 
Heartbeat CPU  0 instructions:  178000003 cycles:  269063029 heartbeat IPC: 0.48839 cumulative IPC: 0.39136 (Simulation time: 0 hr 5 min 53 sec) 
Heartbeat CPU  0 instructions:  179000002 cycles:  270968342 heartbeat IPC: 0.52485 cumulative IPC: 0.39262 (Simulation time: 0 hr 5 min 55 sec) 
Heartbeat CPU  0 instructions:  180000000 cycles:  272853443 heartbeat IPC: 0.53047 cumulative IPC: 0.39390 (Simulation time: 0 hr 5 min 57 sec) 
Heartbeat CPU  0 instructions:  181000003 cycles:  274765903 heartbeat IPC: 0.52289 cumulative IPC: 0.39511 (Simulation time: 0 hr 5 min 59 sec) 
Heartbeat CPU  0 instructions:  182000003 cycles:  276594787 heartbeat IPC: 0.54678 cumulative IPC: 0.39645 (Simulation time: 0 hr 6 min 1 sec) 
Heartbeat CPU  0 instructions:  183000000 cycles:  278406294 heartbeat IPC: 0.55202 cumulative IPC: 0.39780 (Simulation time: 0 hr 6 min 3 sec) 
Heartbeat CPU  0 instructions:  184000000 cycles:  280317714 heartbeat IPC: 0.52317 cumulative IPC: 0.39894 (Simulation time: 0 hr 6 min 5 sec) 
Heartbeat CPU  0 instructions:  185000002 cycles:  282218258 heartbeat IPC: 0.52617 cumulative IPC: 0.40007 (Simulation time: 0 hr 6 min 7 sec) 
Heartbeat CPU  0 instructions:  186000001 cycles:  283978728 heartbeat IPC: 0.56803 cumulative IPC: 0.40146 (Simulation time: 0 hr 6 min 10 sec) 
Heartbeat CPU  0 instructions:  187000000 cycles:  285878177 heartbeat IPC: 0.52647 cumulative IPC: 0.40255 (Simulation time: 0 hr 6 min 12 sec) 
Heartbeat CPU  0 instructions:  188000000 cycles:  287790982 heartbeat IPC: 0.52279 cumulative IPC: 0.40361 (Simulation time: 0 hr 6 min 14 sec) 
Heartbeat CPU  0 instructions:  189000000 cycles:  289563062 heartbeat IPC: 0.56431 cumulative IPC: 0.40490 (Simulation time: 0 hr 6 min 16 sec) 
Heartbeat CPU  0 instructions:  190000000 cycles:  291432377 heartbeat IPC: 0.53496 cumulative IPC: 0.40600 (Simulation time: 0 hr 6 min 18 sec) 
Heartbeat CPU  0 instructions:  191000000 cycles:  293346242 heartbeat IPC: 0.52250 cumulative IPC: 0.40700 (Simulation time: 0 hr 6 min 20 sec) 
Heartbeat CPU  0 instructions:  192000000 cycles:  295190465 heartbeat IPC: 0.54223 cumulative IPC: 0.40810 (Simulation time: 0 hr 6 min 22 sec) 
Heartbeat CPU  0 instructions:  193000001 cycles:  296987511 heartbeat IPC: 0.55647 cumulative IPC: 0.40928 (Simulation time: 0 hr 6 min 24 sec) 
Heartbeat CPU  0 instructions:  194000000 cycles:  298901734 heartbeat IPC: 0.52240 cumulative IPC: 0.41022 (Simulation time: 0 hr 6 min 26 sec) 
Heartbeat CPU  0 instructions:  195000002 cycles:  300801315 heartbeat IPC: 0.52643 cumulative IPC: 0.41118 (Simulation time: 0 hr 6 min 29 sec) 
Heartbeat CPU  0 instructions:  196000000 cycles:  302556678 heartbeat IPC: 0.56968 cumulative IPC: 0.41237 (Simulation time: 0 hr 6 min 31 sec) 
Heartbeat CPU  0 instructions:  197000000 cycles:  304566658 heartbeat IPC: 0.49752 cumulative IPC: 0.41310 (Simulation time: 0 hr 6 min 33 sec) 
Heartbeat CPU  0 instructions:  198000003 cycles:  318859652 heartbeat IPC: 0.06996 cumulative IPC: 0.39341 (Simulation time: 0 hr 6 min 35 sec) 
Heartbeat CPU  0 instructions:  199000001 cycles:  321964112 heartbeat IPC: 0.32212 cumulative IPC: 0.39254 (Simulation time: 0 hr 6 min 37 sec) 
Heartbeat CPU  0 instructions:  200000000 cycles:  323836159 heartbeat IPC: 0.53417 cumulative IPC: 0.39358 (Simulation time: 0 hr 6 min 40 sec) 
Finished CPU 0 instructions: 100000000 cycles: 254078203 cumulative IPC: 0.39358 (Simulation time: 0 hr 6 min 40 sec) 

ChampSim completed all CPUs

[ROI Statistics]
Core_0_instructions 100000000
Core_0_cycles 254078203
Core_0_IPC 0.39358

Core_0_branch_prediction_accuracy 99.16976
Core_0_branch_MPKI 0.01138
Core_0_average_ROB_occupancy_at_mispredict 253.39192

Core_0_L1D_total_access 83738350
Core_0_L1D_total_hit 82893466
Core_0_L1D_total_miss 844884
Core_0_L1D_loads 34101831
Core_0_L1D_load_hit 34071365
Core_0_L1D_load_miss 30466
Core_0_L1D_RFOs 16675596
Core_0_L1D_RFO_hit 16511068
Core_0_L1D_RFO_miss 164528
Core_0_L1D_prefetches 32960923
Core_0_L1D_prefetch_hit 32311033
Core_0_L1D_prefetch_miss 649890
Core_0_L1D_writebacks 0
Core_0_L1D_writeback_hit 0
Core_0_L1D_writeback_miss 0
Core_0_L1D_prefetch_requested 81150031
Core_0_L1D_prefetch_issued 78622244
Core_0_L1D_prefetch_useful 1250496
Core_0_L1D_prefetch_useless 38004
Core_0_L1D_prefetch_late 1527
Core_0_L1D_average_miss_latency 367894.62624

Core_0_L1I_total_access 26515455
Core_0_L1I_total_hit 26515455
Core_0_L1I_total_miss 0
Core_0_L1I_loads 26515455
Core_0_L1I_load_hit 26515455
Core_0_L1I_load_miss 0
Core_0_L1I_RFOs 0
Core_0_L1I_RFO_hit 0
Core_0_L1I_RFO_miss 0
Core_0_L1I_prefetches 0
Core_0_L1I_prefetch_hit 0
Core_0_L1I_prefetch_miss 0
Core_0_L1I_writebacks 0
Core_0_L1I_writeback_hit 0
Core_0_L1I_writeback_miss 0
Core_0_L1I_prefetch_requested 0
Core_0_L1I_prefetch_issued 0
Core_0_L1I_prefetch_useful 0
Core_0_L1I_prefetch_useless 0
Core_0_L1I_prefetch_late 0
Core_0_L1I_average_miss_latency -nan

Core_0_L2C_total_access 2646347
Core_0_L2C_total_hit 2102758
Core_0_L2C_total_miss 543589
Core_0_L2C_loads 28970
Core_0_L2C_load_hit 22615
Core_0_L2C_load_miss 6355
Core_0_L2C_RFOs 164433
Core_0_L2C_RFO_hit 352
Core_0_L2C_RFO_miss 164081
Core_0_L2C_prefetches 2282599
Core_0_L2C_prefetch_hit 1909655
Core_0_L2C_prefetch_miss 372944
Core_0_L2C_writebacks 170345
Core_0_L2C_writeback_hit 170136
Core_0_L2C_writeback_miss 209
Core_0_L2C_prefetch_requested 3367200
Core_0_L2C_prefetch_issued 3224084
Core_0_L2C_prefetch_useful 14380
Core_0_L2C_prefetch_useless 705355
Core_0_L2C_prefetch_late 0
Core_0_L2C_average_miss_latency 183.06443

Core_0_LLC_total_access 1016631
Core_0_LLC_total_hit 318825
Core_0_LLC_total_miss 697806
Core_0_LLC_loads 6355
Core_0_LLC_load_hit 53
Core_0_LLC_load_miss 6302
Core_0_LLC_RFOs 164081
Core_0_LLC_RFO_hit 4796
Core_0_LLC_RFO_miss 159285
Core_0_LLC_prefetches 682372
Core_0_LLC_prefetch_hit 309263
Core_0_LLC_prefetch_miss 373109
Core_0_LLC_writebacks 163823
Core_0_LLC_writeback_hit 4713
Core_0_LLC_writeback_miss 159110
Core_0_LLC_prefetch_requested 711195
Core_0_LLC_prefetch_issued 699960
Core_0_LLC_prefetch_useful 9446
Core_0_LLC_prefetch_useless 693168
Core_0_LLC_prefetch_late 0
Core_0_LLC_average_miss_latency 190.40992

Core_0_major_page_fault 0
Core_0_minor_page_fault 8761

CPU 0 L1D next line prefetcher final stats
CPU 0 L2C PC-based stride prefetcher final stats
LLC Next Line Prefetcher Final Stats: none
Channel_0_RQ_row_buffer_hit 138261
Channel_0_RQ_row_buffer_miss 400435
Channel_0_WQ_row_buffer_hit 20468
Channel_0_WQ_row_buffer_miss 137455
Channel_0_WQ_full 0
Channel_0_dbus_congested 214346

avg_congested_cycle 10
