*************************************************
   ChampSim Multicore Out-of-Order Simulator
   Last compiled: Dec 22 2023 21:55:14
*************************************************

trace_0 ./test_trace/436.cactusADM-1804B.champsimtrace.xz
CPU 0 L1D next line prefetcher
warmup_instructions 100000000
simulation_instructions 100000000
champsim_seed 271

num_cpus 1
cpu_freq 4000
dram_io_freq 2400
page_size 4096
block_size 64
max_read_per_cycle 8
max_fill_per_cycle 1
dram_channels 1
dram_ranks 1
dram_banks 8
dram_rows 65536
dram_columns 128
dram_row_size 8
dram_size 4096
dram_pages 1048576

fetch_width 6
decode_width 6
exec_width 4
lq_width 2
sq_width 2
retire_width 4
scheduler_size 128
branch_mispredict_penalty 20
rob_size 256
lq_size 72
sq_size 56
num_instr_destinations_sparc 4
num_instr_destinations 2
num_instr_sources 4

itlb_set 16
itlb_way 8
itlb_rq_size 16
itlb_wq_size 16
itlb_pq_size 0
itlb_mshr_size 8
itlb_latency 1

dtlb_set 16
dtlb_way 4
dtlb_rq_size 16
dtlb_wq_size 16
dtlb_pq_size 0
dtlb_mshr_size 8
dtlb_latency 1

stlb_set 128
stlb_way 12
stlb_rq_size 32
stlb_wq_size 32
stlb_pq_size 0
stlb_mshr_size 16
stlb_latency 8

l1i_size 32
l1i_set 64
l1i_way 8
l1i_rq_size 64
l1i_wq_size 64
l1i_pq_size 8
l1i_mshr_size 8
l1i_latency 1

l1d_size 32
l1d_set 64
l1d_way 8
l1d_rq_size 64
l1d_wq_size 64
l1d_pq_size 8
l1d_mshr_size 16
l1d_latency 4

l2c_size 512
l2c_set 1024
l2c_way 8
l2c_rq_size 32
l2c_wq_size 32
l2c_pq_size 16
l2c_mshr_size 32
l2c_latency 10

llc_size 2048
llc_set 2048
llc_way 16
llc_rq_size 32
llc_wq_size 32
llc_pq_size 32
llc_mshr_size 64
llc_latency 20

dram_channel_width 8
dram_wq_size 64
dram_rq_size 64
tRP 15
tRCD 15
tCAS 12.5
dram_dbus_turn_around_time 30
dram_write_high_wm 56
dram_write_low_wm 48
min_dram_writes_per_switch 16
dram_mtps 2400
dram_dbus_return_time 13


Heartbeat CPU  0 instructions:    1000000 cycles:     702169 heartbeat IPC: 1.42416 cumulative IPC: 1.42416 (Simulation time: 0 hr 0 min 2 sec) 
Heartbeat CPU  0 instructions:    2000000 cycles:    1404110 heartbeat IPC: 1.42462 cumulative IPC: 1.42439 (Simulation time: 0 hr 0 min 3 sec) 
Heartbeat CPU  0 instructions:    3000000 cycles:    2106264 heartbeat IPC: 1.42419 cumulative IPC: 1.42432 (Simulation time: 0 hr 0 min 5 sec) 
Heartbeat CPU  0 instructions:    4000000 cycles:    2808416 heartbeat IPC: 1.42419 cumulative IPC: 1.42429 (Simulation time: 0 hr 0 min 7 sec) 
Heartbeat CPU  0 instructions:    5000000 cycles:    3510330 heartbeat IPC: 1.42468 cumulative IPC: 1.42437 (Simulation time: 0 hr 0 min 9 sec) 
Heartbeat CPU  0 instructions:    6000000 cycles:    4212453 heartbeat IPC: 1.42425 cumulative IPC: 1.42435 (Simulation time: 0 hr 0 min 11 sec) 
Heartbeat CPU  0 instructions:    7000001 cycles:    4914710 heartbeat IPC: 1.42398 cumulative IPC: 1.42430 (Simulation time: 0 hr 0 min 12 sec) 
Heartbeat CPU  0 instructions:    8000000 cycles:    5616540 heartbeat IPC: 1.42485 cumulative IPC: 1.42436 (Simulation time: 0 hr 0 min 14 sec) 
Heartbeat CPU  0 instructions:    9000001 cycles:    6318774 heartbeat IPC: 1.42403 cumulative IPC: 1.42433 (Simulation time: 0 hr 0 min 16 sec) 
Heartbeat CPU  0 instructions:   10000000 cycles:    7020818 heartbeat IPC: 1.42441 cumulative IPC: 1.42434 (Simulation time: 0 hr 0 min 18 sec) 
Heartbeat CPU  0 instructions:   11000002 cycles:    7722797 heartbeat IPC: 1.42455 cumulative IPC: 1.42435 (Simulation time: 0 hr 0 min 20 sec) 
Heartbeat CPU  0 instructions:   12000000 cycles:    8424735 heartbeat IPC: 1.42462 cumulative IPC: 1.42438 (Simulation time: 0 hr 0 min 21 sec) 
Heartbeat CPU  0 instructions:   13000000 cycles:    9127079 heartbeat IPC: 1.42380 cumulative IPC: 1.42433 (Simulation time: 0 hr 0 min 23 sec) 
Heartbeat CPU  0 instructions:   14000002 cycles:    9829155 heartbeat IPC: 1.42435 cumulative IPC: 1.42433 (Simulation time: 0 hr 0 min 25 sec) 
Heartbeat CPU  0 instructions:   15000002 cycles:   10530862 heartbeat IPC: 1.42510 cumulative IPC: 1.42439 (Simulation time: 0 hr 0 min 27 sec) 
Heartbeat CPU  0 instructions:   16000000 cycles:   11233266 heartbeat IPC: 1.42368 cumulative IPC: 1.42434 (Simulation time: 0 hr 0 min 29 sec) 
Heartbeat CPU  0 instructions:   17000000 cycles:   11935599 heartbeat IPC: 1.42383 cumulative IPC: 1.42431 (Simulation time: 0 hr 0 min 31 sec) 
Heartbeat CPU  0 instructions:   18000001 cycles:   12594637 heartbeat IPC: 1.51736 cumulative IPC: 1.42918 (Simulation time: 0 hr 0 min 32 sec) 
Heartbeat CPU  0 instructions:   19000000 cycles:   13226879 heartbeat IPC: 1.58167 cumulative IPC: 1.43647 (Simulation time: 0 hr 0 min 34 sec) 
Heartbeat CPU  0 instructions:   20000000 cycles:   13929158 heartbeat IPC: 1.42394 cumulative IPC: 1.43584 (Simulation time: 0 hr 0 min 36 sec) 
Heartbeat CPU  0 instructions:   21000000 cycles:   14631340 heartbeat IPC: 1.42413 cumulative IPC: 1.43528 (Simulation time: 0 hr 0 min 38 sec) 
Heartbeat CPU  0 instructions:   22000002 cycles:   15333379 heartbeat IPC: 1.42443 cumulative IPC: 1.43478 (Simulation time: 0 hr 0 min 40 sec) 
Heartbeat CPU  0 instructions:   23000001 cycles:   16035526 heartbeat IPC: 1.42420 cumulative IPC: 1.43432 (Simulation time: 0 hr 0 min 41 sec) 
Heartbeat CPU  0 instructions:   24000000 cycles:   16737394 heartbeat IPC: 1.42477 cumulative IPC: 1.43392 (Simulation time: 0 hr 0 min 43 sec) 
Heartbeat CPU  0 instructions:   25000001 cycles:   17439516 heartbeat IPC: 1.42426 cumulative IPC: 1.43353 (Simulation time: 0 hr 0 min 45 sec) 
Heartbeat CPU  0 instructions:   26000003 cycles:   18141844 heartbeat IPC: 1.42384 cumulative IPC: 1.43315 (Simulation time: 0 hr 0 min 47 sec) 
Heartbeat CPU  0 instructions:   27000003 cycles:   18843814 heartbeat IPC: 1.42456 cumulative IPC: 1.43283 (Simulation time: 0 hr 0 min 49 sec) 
Heartbeat CPU  0 instructions:   28000000 cycles:   19545771 heartbeat IPC: 1.42458 cumulative IPC: 1.43253 (Simulation time: 0 hr 0 min 51 sec) 
Heartbeat CPU  0 instructions:   29000000 cycles:   20247977 heartbeat IPC: 1.42408 cumulative IPC: 1.43224 (Simulation time: 0 hr 0 min 52 sec) 
Heartbeat CPU  0 instructions:   30000003 cycles:   20950105 heartbeat IPC: 1.42425 cumulative IPC: 1.43197 (Simulation time: 0 hr 0 min 54 sec) 
Heartbeat CPU  0 instructions:   31000003 cycles:   21651796 heartbeat IPC: 1.42513 cumulative IPC: 1.43175 (Simulation time: 0 hr 0 min 56 sec) 
Heartbeat CPU  0 instructions:   32000000 cycles:   22353682 heartbeat IPC: 1.42473 cumulative IPC: 1.43153 (Simulation time: 0 hr 0 min 58 sec) 
Heartbeat CPU  0 instructions:   33000001 cycles:   23056178 heartbeat IPC: 1.42350 cumulative IPC: 1.43129 (Simulation time: 0 hr 1 min 0 sec) 
Heartbeat CPU  0 instructions:   34000000 cycles:   23758148 heartbeat IPC: 1.42456 cumulative IPC: 1.43109 (Simulation time: 0 hr 1 min 2 sec) 
Heartbeat CPU  0 instructions:   35000001 cycles:   24460046 heartbeat IPC: 1.42471 cumulative IPC: 1.43090 (Simulation time: 0 hr 1 min 3 sec) 
Heartbeat CPU  0 instructions:   36000000 cycles:   25162026 heartbeat IPC: 1.42454 cumulative IPC: 1.43073 (Simulation time: 0 hr 1 min 5 sec) 
Heartbeat CPU  0 instructions:   37000000 cycles:   25864393 heartbeat IPC: 1.42376 cumulative IPC: 1.43054 (Simulation time: 0 hr 1 min 7 sec) 
Heartbeat CPU  0 instructions:   38000001 cycles:   26566388 heartbeat IPC: 1.42451 cumulative IPC: 1.43038 (Simulation time: 0 hr 1 min 9 sec) 
Heartbeat CPU  0 instructions:   39000000 cycles:   27268321 heartbeat IPC: 1.42464 cumulative IPC: 1.43023 (Simulation time: 0 hr 1 min 11 sec) 
Heartbeat CPU  0 instructions:   40000000 cycles:   27970308 heartbeat IPC: 1.42453 cumulative IPC: 1.43009 (Simulation time: 0 hr 1 min 13 sec) 
Heartbeat CPU  0 instructions:   41000000 cycles:   28571324 heartbeat IPC: 1.66385 cumulative IPC: 1.43501 (Simulation time: 0 hr 1 min 14 sec) 
Heartbeat CPU  0 instructions:   42000002 cycles:   29261976 heartbeat IPC: 1.44791 cumulative IPC: 1.43531 (Simulation time: 0 hr 1 min 16 sec) 
Heartbeat CPU  0 instructions:   43000002 cycles:   29964153 heartbeat IPC: 1.42414 cumulative IPC: 1.43505 (Simulation time: 0 hr 1 min 18 sec) 
Heartbeat CPU  0 instructions:   44000000 cycles:   30666283 heartbeat IPC: 1.42423 cumulative IPC: 1.43480 (Simulation time: 0 hr 1 min 20 sec) 
Heartbeat CPU  0 instructions:   45000003 cycles:   31368299 heartbeat IPC: 1.42447 cumulative IPC: 1.43457 (Simulation time: 0 hr 1 min 22 sec) 
Heartbeat CPU  0 instructions:   46000003 cycles:   32070229 heartbeat IPC: 1.42464 cumulative IPC: 1.43435 (Simulation time: 0 hr 1 min 23 sec) 
Heartbeat CPU  0 instructions:   47000000 cycles:   32772192 heartbeat IPC: 1.42457 cumulative IPC: 1.43414 (Simulation time: 0 hr 1 min 25 sec) 
Heartbeat CPU  0 instructions:   48000000 cycles:   33474537 heartbeat IPC: 1.42380 cumulative IPC: 1.43393 (Simulation time: 0 hr 1 min 27 sec) 
Heartbeat CPU  0 instructions:   49000000 cycles:   34176303 heartbeat IPC: 1.42498 cumulative IPC: 1.43374 (Simulation time: 0 hr 1 min 29 sec) 
Heartbeat CPU  0 instructions:   50000000 cycles:   34878400 heartbeat IPC: 1.42430 cumulative IPC: 1.43355 (Simulation time: 0 hr 1 min 31 sec) 
Heartbeat CPU  0 instructions:   51000000 cycles:   35580681 heartbeat IPC: 1.42393 cumulative IPC: 1.43336 (Simulation time: 0 hr 1 min 32 sec) 
Heartbeat CPU  0 instructions:   52000000 cycles:   36282577 heartbeat IPC: 1.42471 cumulative IPC: 1.43319 (Simulation time: 0 hr 1 min 34 sec) 
Heartbeat CPU  0 instructions:   53000000 cycles:   36984695 heartbeat IPC: 1.42426 cumulative IPC: 1.43303 (Simulation time: 0 hr 1 min 36 sec) 
Heartbeat CPU  0 instructions:   54000001 cycles:   37686538 heartbeat IPC: 1.42482 cumulative IPC: 1.43287 (Simulation time: 0 hr 1 min 38 sec) 
Heartbeat CPU  0 instructions:   55000001 cycles:   38388586 heartbeat IPC: 1.42440 cumulative IPC: 1.43272 (Simulation time: 0 hr 1 min 40 sec) 
Heartbeat CPU  0 instructions:   56000000 cycles:   39090806 heartbeat IPC: 1.42405 cumulative IPC: 1.43256 (Simulation time: 0 hr 1 min 42 sec) 
Heartbeat CPU  0 instructions:   57000000 cycles:   39793026 heartbeat IPC: 1.42406 cumulative IPC: 1.43241 (Simulation time: 0 hr 1 min 43 sec) 
Heartbeat CPU  0 instructions:   58000003 cycles:   40495046 heartbeat IPC: 1.42447 cumulative IPC: 1.43227 (Simulation time: 0 hr 1 min 45 sec) 
Heartbeat CPU  0 instructions:   59000000 cycles:   41196941 heartbeat IPC: 1.42471 cumulative IPC: 1.43215 (Simulation time: 0 hr 1 min 47 sec) 
Heartbeat CPU  0 instructions:   60000000 cycles:   41899162 heartbeat IPC: 1.42405 cumulative IPC: 1.43201 (Simulation time: 0 hr 1 min 49 sec) 
Heartbeat CPU  0 instructions:   61000000 cycles:   42601105 heartbeat IPC: 1.42462 cumulative IPC: 1.43189 (Simulation time: 0 hr 1 min 51 sec) 
Heartbeat CPU  0 instructions:   62000002 cycles:   43303043 heartbeat IPC: 1.42463 cumulative IPC: 1.43177 (Simulation time: 0 hr 1 min 52 sec) 
Heartbeat CPU  0 instructions:   63000000 cycles:   43947848 heartbeat IPC: 1.55085 cumulative IPC: 1.43352 (Simulation time: 0 hr 1 min 54 sec) 
Heartbeat CPU  0 instructions:   64000000 cycles:   44596550 heartbeat IPC: 1.54154 cumulative IPC: 1.43509 (Simulation time: 0 hr 1 min 56 sec) 
Heartbeat CPU  0 instructions:   65000000 cycles:   45298435 heartbeat IPC: 1.42473 cumulative IPC: 1.43493 (Simulation time: 0 hr 1 min 58 sec) 
Heartbeat CPU  0 instructions:   66000001 cycles:   46000247 heartbeat IPC: 1.42488 cumulative IPC: 1.43477 (Simulation time: 0 hr 2 min 0 sec) 
Heartbeat CPU  0 instructions:   67000002 cycles:   46702143 heartbeat IPC: 1.42471 cumulative IPC: 1.43462 (Simulation time: 0 hr 2 min 1 sec) 
Heartbeat CPU  0 instructions:   68000000 cycles:   47404312 heartbeat IPC: 1.42416 cumulative IPC: 1.43447 (Simulation time: 0 hr 2 min 3 sec) 
Heartbeat CPU  0 instructions:   69000000 cycles:   48106339 heartbeat IPC: 1.42445 cumulative IPC: 1.43432 (Simulation time: 0 hr 2 min 5 sec) 
Heartbeat CPU  0 instructions:   70000002 cycles:   48808256 heartbeat IPC: 1.42467 cumulative IPC: 1.43418 (Simulation time: 0 hr 2 min 7 sec) 
Heartbeat CPU  0 instructions:   71000003 cycles:   49510619 heartbeat IPC: 1.42377 cumulative IPC: 1.43404 (Simulation time: 0 hr 2 min 9 sec) 
Heartbeat CPU  0 instructions:   72000000 cycles:   50212504 heartbeat IPC: 1.42473 cumulative IPC: 1.43391 (Simulation time: 0 hr 2 min 10 sec) 
Heartbeat CPU  0 instructions:   73000001 cycles:   50914415 heartbeat IPC: 1.42468 cumulative IPC: 1.43378 (Simulation time: 0 hr 2 min 12 sec) 
Heartbeat CPU  0 instructions:   74000003 cycles:   51616520 heartbeat IPC: 1.42429 cumulative IPC: 1.43365 (Simulation time: 0 hr 2 min 14 sec) 
Heartbeat CPU  0 instructions:   75000002 cycles:   52318968 heartbeat IPC: 1.42359 cumulative IPC: 1.43351 (Simulation time: 0 hr 2 min 16 sec) 
Heartbeat CPU  0 instructions:   76000000 cycles:   53020917 heartbeat IPC: 1.42460 cumulative IPC: 1.43340 (Simulation time: 0 hr 2 min 18 sec) 
Heartbeat CPU  0 instructions:   77000003 cycles:   53723311 heartbeat IPC: 1.42371 cumulative IPC: 1.43327 (Simulation time: 0 hr 2 min 20 sec) 
Heartbeat CPU  0 instructions:   78000001 cycles:   54425640 heartbeat IPC: 1.42383 cumulative IPC: 1.43315 (Simulation time: 0 hr 2 min 21 sec) 
Heartbeat CPU  0 instructions:   79000001 cycles:   55127313 heartbeat IPC: 1.42517 cumulative IPC: 1.43305 (Simulation time: 0 hr 2 min 23 sec) 
Heartbeat CPU  0 instructions:   80000000 cycles:   55829145 heartbeat IPC: 1.42484 cumulative IPC: 1.43294 (Simulation time: 0 hr 2 min 25 sec) 
Heartbeat CPU  0 instructions:   81000002 cycles:   56531290 heartbeat IPC: 1.42421 cumulative IPC: 1.43283 (Simulation time: 0 hr 2 min 27 sec) 
Heartbeat CPU  0 instructions:   82000003 cycles:   57233306 heartbeat IPC: 1.42447 cumulative IPC: 1.43273 (Simulation time: 0 hr 2 min 29 sec) 
Heartbeat CPU  0 instructions:   83000001 cycles:   57935368 heartbeat IPC: 1.42437 cumulative IPC: 1.43263 (Simulation time: 0 hr 2 min 31 sec) 
Heartbeat CPU  0 instructions:   84000000 cycles:   58637343 heartbeat IPC: 1.42455 cumulative IPC: 1.43253 (Simulation time: 0 hr 2 min 32 sec) 
Heartbeat CPU  0 instructions:   85000000 cycles:   59325223 heartbeat IPC: 1.45374 cumulative IPC: 1.43278 (Simulation time: 0 hr 2 min 34 sec) 
Heartbeat CPU  0 instructions:   86000002 cycles:   59930208 heartbeat IPC: 1.65294 cumulative IPC: 1.43500 (Simulation time: 0 hr 2 min 36 sec) 
Heartbeat CPU  0 instructions:   87000002 cycles:   60632459 heartbeat IPC: 1.42399 cumulative IPC: 1.43488 (Simulation time: 0 hr 2 min 38 sec) 
Heartbeat CPU  0 instructions:   88000000 cycles:   61334801 heartbeat IPC: 1.42380 cumulative IPC: 1.43475 (Simulation time: 0 hr 2 min 40 sec) 
Heartbeat CPU  0 instructions:   89000001 cycles:   62036606 heartbeat IPC: 1.42490 cumulative IPC: 1.43464 (Simulation time: 0 hr 2 min 41 sec) 
Heartbeat CPU  0 instructions:   90000003 cycles:   62738730 heartbeat IPC: 1.42425 cumulative IPC: 1.43452 (Simulation time: 0 hr 2 min 43 sec) 
Heartbeat CPU  0 instructions:   91000003 cycles:   63440895 heartbeat IPC: 1.42417 cumulative IPC: 1.43441 (Simulation time: 0 hr 2 min 45 sec) 
Heartbeat CPU  0 instructions:   92000000 cycles:   64142848 heartbeat IPC: 1.42459 cumulative IPC: 1.43430 (Simulation time: 0 hr 2 min 47 sec) 
Heartbeat CPU  0 instructions:   93000002 cycles:   64844888 heartbeat IPC: 1.42442 cumulative IPC: 1.43419 (Simulation time: 0 hr 2 min 49 sec) 
Heartbeat CPU  0 instructions:   94000002 cycles:   65546706 heartbeat IPC: 1.42487 cumulative IPC: 1.43409 (Simulation time: 0 hr 2 min 51 sec) 
Heartbeat CPU  0 instructions:   95000003 cycles:   66248635 heartbeat IPC: 1.42465 cumulative IPC: 1.43399 (Simulation time: 0 hr 2 min 52 sec) 
Heartbeat CPU  0 instructions:   96000000 cycles:   66950705 heartbeat IPC: 1.42436 cumulative IPC: 1.43389 (Simulation time: 0 hr 2 min 54 sec) 
Heartbeat CPU  0 instructions:   97000000 cycles:   67652810 heartbeat IPC: 1.42429 cumulative IPC: 1.43379 (Simulation time: 0 hr 2 min 56 sec) 
Heartbeat CPU  0 instructions:   98000002 cycles:   68354740 heartbeat IPC: 1.42465 cumulative IPC: 1.43370 (Simulation time: 0 hr 2 min 58 sec) 
Heartbeat CPU  0 instructions:   99000003 cycles:   69056727 heartbeat IPC: 1.42453 cumulative IPC: 1.43360 (Simulation time: 0 hr 3 min 0 sec) 
Heartbeat CPU  0 instructions:  100000000 cycles:   69758896 heartbeat IPC: 1.42415 cumulative IPC: 1.43351 (Simulation time: 0 hr 3 min 2 sec) 

Warmup complete CPU  0 instructions:  100000001 cycles:   69758916 (Simulation time: 0 hr 3 min 2 sec) 

Heartbeat CPU  0 instructions:  101000000 cycles:   71663695 heartbeat IPC: 0.52499 cumulative IPC: 0.52499 (Simulation time: 0 hr 3 min 4 sec) 
Heartbeat CPU  0 instructions:  102000003 cycles:   73400159 heartbeat IPC: 0.57588 cumulative IPC: 0.54926 (Simulation time: 0 hr 3 min 6 sec) 
Heartbeat CPU  0 instructions:  103000003 cycles:   75245878 heartbeat IPC: 0.54179 cumulative IPC: 0.54675 (Simulation time: 0 hr 3 min 8 sec) 
Heartbeat CPU  0 instructions:  104000000 cycles:   77140116 heartbeat IPC: 0.52792 cumulative IPC: 0.54192 (Simulation time: 0 hr 3 min 10 sec) 
Heartbeat CPU  0 instructions:  105000002 cycles:   78956214 heartbeat IPC: 0.55063 cumulative IPC: 0.54364 (Simulation time: 0 hr 3 min 12 sec) 
Heartbeat CPU  0 instructions:  106000000 cycles:   80732400 heartbeat IPC: 0.56300 cumulative IPC: 0.54677 (Simulation time: 0 hr 3 min 14 sec) 
Heartbeat CPU  0 instructions:  107000003 cycles:   82621643 heartbeat IPC: 0.52931 cumulative IPC: 0.54421 (Simulation time: 0 hr 3 min 16 sec) 
Heartbeat CPU  0 instructions:  108000000 cycles:   93343043 heartbeat IPC: 0.09327 cumulative IPC: 0.33921 (Simulation time: 0 hr 3 min 18 sec) 
Heartbeat CPU  0 instructions:  109000003 cycles:  100121925 heartbeat IPC: 0.14752 cumulative IPC: 0.29641 (Simulation time: 0 hr 3 min 21 sec) 
Heartbeat CPU  0 instructions:  110000001 cycles:  102010668 heartbeat IPC: 0.52945 cumulative IPC: 0.31006 (Simulation time: 0 hr 3 min 23 sec) 
Heartbeat CPU  0 instructions:  111000000 cycles:  103907188 heartbeat IPC: 0.52728 cumulative IPC: 0.32212 (Simulation time: 0 hr 3 min 25 sec) 
Heartbeat CPU  0 instructions:  112000000 cycles:  105653445 heartbeat IPC: 0.57265 cumulative IPC: 0.33431 (Simulation time: 0 hr 3 min 27 sec) 
Heartbeat CPU  0 instructions:  113000000 cycles:  107501473 heartbeat IPC: 0.54112 cumulative IPC: 0.34444 (Simulation time: 0 hr 3 min 29 sec) 
Heartbeat CPU  0 instructions:  114000000 cycles:  109408136 heartbeat IPC: 0.52448 cumulative IPC: 0.35310 (Simulation time: 0 hr 3 min 31 sec) 
Heartbeat CPU  0 instructions:  115000001 cycles:  111223310 heartbeat IPC: 0.55091 cumulative IPC: 0.36176 (Simulation time: 0 hr 3 min 33 sec) 
Heartbeat CPU  0 instructions:  116000000 cycles:  112998057 heartbeat IPC: 0.56346 cumulative IPC: 0.37004 (Simulation time: 0 hr 3 min 35 sec) 
Heartbeat CPU  0 instructions:  117000003 cycles:  114896242 heartbeat IPC: 0.52682 cumulative IPC: 0.37663 (Simulation time: 0 hr 3 min 37 sec) 
Heartbeat CPU  0 instructions:  118000002 cycles:  116779538 heartbeat IPC: 0.53098 cumulative IPC: 0.38281 (Simulation time: 0 hr 3 min 39 sec) 
Heartbeat CPU  0 instructions:  119000002 cycles:  118504694 heartbeat IPC: 0.57966 cumulative IPC: 0.38978 (Simulation time: 0 hr 3 min 41 sec) 
Heartbeat CPU  0 instructions:  120000000 cycles:  120388629 heartbeat IPC: 0.53080 cumulative IPC: 0.39502 (Simulation time: 0 hr 3 min 43 sec) 
Heartbeat CPU  0 instructions:  121000003 cycles:  122283648 heartbeat IPC: 0.52770 cumulative IPC: 0.39981 (Simulation time: 0 hr 3 min 46 sec) 
Heartbeat CPU  0 instructions:  122000003 cycles:  124042544 heartbeat IPC: 0.56854 cumulative IPC: 0.40528 (Simulation time: 0 hr 3 min 48 sec) 
Heartbeat CPU  0 instructions:  123000002 cycles:  125874240 heartbeat IPC: 0.54594 cumulative IPC: 0.40987 (Simulation time: 0 hr 3 min 50 sec) 
Heartbeat CPU  0 instructions:  124000000 cycles:  127773106 heartbeat IPC: 0.52663 cumulative IPC: 0.41369 (Simulation time: 0 hr 3 min 52 sec) 
Heartbeat CPU  0 instructions:  125000000 cycles:  129610678 heartbeat IPC: 0.54420 cumulative IPC: 0.41770 (Simulation time: 0 hr 3 min 54 sec) 
Heartbeat CPU  0 instructions:  126000002 cycles:  131382650 heartbeat IPC: 0.56434 cumulative IPC: 0.42192 (Simulation time: 0 hr 3 min 56 sec) 
Heartbeat CPU  0 instructions:  127000002 cycles:  133398184 heartbeat IPC: 0.49615 cumulative IPC: 0.42427 (Simulation time: 0 hr 3 min 58 sec) 
Heartbeat CPU  0 instructions:  128000000 cycles:  135284696 heartbeat IPC: 0.53008 cumulative IPC: 0.42731 (Simulation time: 0 hr 4 min 0 sec) 
Heartbeat CPU  0 instructions:  129000001 cycles:  137007108 heartbeat IPC: 0.58058 cumulative IPC: 0.43124 (Simulation time: 0 hr 4 min 2 sec) 
Heartbeat CPU  0 instructions:  130000000 cycles:  142507863 heartbeat IPC: 0.18179 cumulative IPC: 0.41238 (Simulation time: 0 hr 4 min 4 sec) 
Heartbeat CPU  0 instructions:  131000003 cycles:  154622167 heartbeat IPC: 0.08255 cumulative IPC: 0.36529 (Simulation time: 0 hr 4 min 6 sec) 
Heartbeat CPU  0 instructions:  132000000 cycles:  156383440 heartbeat IPC: 0.56777 cumulative IPC: 0.36941 (Simulation time: 0 hr 4 min 9 sec) 
Heartbeat CPU  0 instructions:  133000000 cycles:  158218039 heartbeat IPC: 0.54508 cumulative IPC: 0.37305 (Simulation time: 0 hr 4 min 11 sec) 
Heartbeat CPU  0 instructions:  134000000 cycles:  160117095 heartbeat IPC: 0.52658 cumulative IPC: 0.37628 (Simulation time: 0 hr 4 min 13 sec) 
Heartbeat CPU  0 instructions:  135000000 cycles:  161952325 heartbeat IPC: 0.54489 cumulative IPC: 0.37964 (Simulation time: 0 hr 4 min 15 sec) 
Heartbeat CPU  0 instructions:  136000000 cycles:  163712550 heartbeat IPC: 0.56811 cumulative IPC: 0.38317 (Simulation time: 0 hr 4 min 17 sec) 
Heartbeat CPU  0 instructions:  137000002 cycles:  165611083 heartbeat IPC: 0.52672 cumulative IPC: 0.38601 (Simulation time: 0 hr 4 min 19 sec) 
Heartbeat CPU  0 instructions:  138000001 cycles:  167499862 heartbeat IPC: 0.52944 cumulative IPC: 0.38878 (Simulation time: 0 hr 4 min 21 sec) 
Heartbeat CPU  0 instructions:  139000001 cycles:  169223246 heartbeat IPC: 0.58025 cumulative IPC: 0.39210 (Simulation time: 0 hr 4 min 23 sec) 
Heartbeat CPU  0 instructions:  140000000 cycles:  171110875 heartbeat IPC: 0.52976 cumulative IPC: 0.39466 (Simulation time: 0 hr 4 min 25 sec) 
Heartbeat CPU  0 instructions:  141000000 cycles:  173008963 heartbeat IPC: 0.52685 cumulative IPC: 0.39709 (Simulation time: 0 hr 4 min 27 sec) 
Heartbeat CPU  0 instructions:  142000001 cycles:  174784361 heartbeat IPC: 0.56325 cumulative IPC: 0.39990 (Simulation time: 0 hr 4 min 29 sec) 
Heartbeat CPU  0 instructions:  143000001 cycles:  176601036 heartbeat IPC: 0.55046 cumulative IPC: 0.40246 (Simulation time: 0 hr 4 min 31 sec) 
Heartbeat CPU  0 instructions:  144000000 cycles:  178501031 heartbeat IPC: 0.52632 cumulative IPC: 0.40463 (Simulation time: 0 hr 4 min 33 sec) 
Heartbeat CPU  0 instructions:  145000000 cycles:  180355020 heartbeat IPC: 0.53938 cumulative IPC: 0.40689 (Simulation time: 0 hr 4 min 35 sec) 
Heartbeat CPU  0 instructions:  146000002 cycles:  182100738 heartbeat IPC: 0.57283 cumulative IPC: 0.40946 (Simulation time: 0 hr 4 min 37 sec) 
Heartbeat CPU  0 instructions:  147000003 cycles:  183995612 heartbeat IPC: 0.52774 cumulative IPC: 0.41143 (Simulation time: 0 hr 4 min 40 sec) 
Heartbeat CPU  0 instructions:  148000000 cycles:  185885133 heartbeat IPC: 0.52923 cumulative IPC: 0.41334 (Simulation time: 0 hr 4 min 42 sec) 
Heartbeat CPU  0 instructions:  149000002 cycles:  187615286 heartbeat IPC: 0.57798 cumulative IPC: 0.41576 (Simulation time: 0 hr 4 min 44 sec) 
Heartbeat CPU  0 instructions:  150000003 cycles:  189489007 heartbeat IPC: 0.53370 cumulative IPC: 0.41761 (Simulation time: 0 hr 4 min 46 sec) 
Heartbeat CPU  0 instructions:  151000003 cycles:  191382585 heartbeat IPC: 0.52810 cumulative IPC: 0.41933 (Simulation time: 0 hr 4 min 48 sec) 
Heartbeat CPU  0 instructions:  152000000 cycles:  193188438 heartbeat IPC: 0.55375 cumulative IPC: 0.42129 (Simulation time: 0 hr 4 min 50 sec) 
Heartbeat CPU  0 instructions:  153000003 cycles:  205996564 heartbeat IPC: 0.07808 cumulative IPC: 0.38903 (Simulation time: 0 hr 4 min 52 sec) 
Heartbeat CPU  0 instructions:  154000000 cycles:  210952109 heartbeat IPC: 0.20179 cumulative IPC: 0.38245 (Simulation time: 0 hr 4 min 54 sec) 
Heartbeat CPU  0 instructions:  155000000 cycles:  212805618 heartbeat IPC: 0.53952 cumulative IPC: 0.38449 (Simulation time: 0 hr 4 min 56 sec) 
Heartbeat CPU  0 instructions:  156000000 cycles:  214547384 heartbeat IPC: 0.57413 cumulative IPC: 0.38677 (Simulation time: 0 hr 4 min 58 sec) 
Heartbeat CPU  0 instructions:  157000001 cycles:  216442522 heartbeat IPC: 0.52767 cumulative IPC: 0.38859 (Simulation time: 0 hr 5 min 1 sec) 
Heartbeat CPU  0 instructions:  158000001 cycles:  218334245 heartbeat IPC: 0.52862 cumulative IPC: 0.39037 (Simulation time: 0 hr 5 min 3 sec) 
Heartbeat CPU  0 instructions:  159000000 cycles:  220061851 heartbeat IPC: 0.57884 cumulative IPC: 0.39254 (Simulation time: 0 hr 5 min 5 sec) 
Heartbeat CPU  0 instructions:  160000000 cycles:  221938490 heartbeat IPC: 0.53287 cumulative IPC: 0.39427 (Simulation time: 0 hr 5 min 7 sec) 
Heartbeat CPU  0 instructions:  161000003 cycles:  223838446 heartbeat IPC: 0.52633 cumulative IPC: 0.39590 (Simulation time: 0 hr 5 min 9 sec) 
Heartbeat CPU  0 instructions:  162000000 cycles:  225631927 heartbeat IPC: 0.55757 cumulative IPC: 0.39776 (Simulation time: 0 hr 5 min 11 sec) 
Heartbeat CPU  0 instructions:  163000003 cycles:  227433066 heartbeat IPC: 0.55521 cumulative IPC: 0.39956 (Simulation time: 0 hr 5 min 13 sec) 
Heartbeat CPU  0 instructions:  164000000 cycles:  229328386 heartbeat IPC: 0.52761 cumulative IPC: 0.40108 (Simulation time: 0 hr 5 min 15 sec) 
Heartbeat CPU  0 instructions:  165000000 cycles:  231206493 heartbeat IPC: 0.53245 cumulative IPC: 0.40261 (Simulation time: 0 hr 5 min 17 sec) 
Heartbeat CPU  0 instructions:  166000001 cycles:  232932857 heartbeat IPC: 0.57925 cumulative IPC: 0.40448 (Simulation time: 0 hr 5 min 19 sec) 
Heartbeat CPU  0 instructions:  167000000 cycles:  234824451 heartbeat IPC: 0.52865 cumulative IPC: 0.40590 (Simulation time: 0 hr 5 min 21 sec) 
Heartbeat CPU  0 instructions:  168000000 cycles:  236718435 heartbeat IPC: 0.52799 cumulative IPC: 0.40728 (Simulation time: 0 hr 5 min 23 sec) 
Heartbeat CPU  0 instructions:  169000001 cycles:  238456264 heartbeat IPC: 0.57543 cumulative IPC: 0.40902 (Simulation time: 0 hr 5 min 25 sec) 
Heartbeat CPU  0 instructions:  170000002 cycles:  240313647 heartbeat IPC: 0.53839 cumulative IPC: 0.41043 (Simulation time: 0 hr 5 min 27 sec) 
Heartbeat CPU  0 instructions:  171000001 cycles:  242214438 heartbeat IPC: 0.52610 cumulative IPC: 0.41170 (Simulation time: 0 hr 5 min 29 sec) 
Heartbeat CPU  0 instructions:  172000000 cycles:  244026906 heartbeat IPC: 0.55173 cumulative IPC: 0.41316 (Simulation time: 0 hr 5 min 31 sec) 
Heartbeat CPU  0 instructions:  173000000 cycles:  245810321 heartbeat IPC: 0.56072 cumulative IPC: 0.41465 (Simulation time: 0 hr 5 min 33 sec) 
Heartbeat CPU  0 instructions:  174000003 cycles:  247708634 heartbeat IPC: 0.52679 cumulative IPC: 0.41585 (Simulation time: 0 hr 5 min 35 sec) 
Heartbeat CPU  0 instructions:  175000000 cycles:  254877922 heartbeat IPC: 0.13948 cumulative IPC: 0.40514 (Simulation time: 0 hr 5 min 38 sec) 
Heartbeat CPU  0 instructions:  176000000 cycles:  265177535 heartbeat IPC: 0.09709 cumulative IPC: 0.38891 (Simulation time: 0 hr 5 min 40 sec) 
Heartbeat CPU  0 instructions:  177000001 cycles:  267142281 heartbeat IPC: 0.50897 cumulative IPC: 0.39010 (Simulation time: 0 hr 5 min 42 sec) 
Heartbeat CPU  0 instructions:  178000003 cycles:  269189920 heartbeat IPC: 0.48837 cumulative IPC: 0.39111 (Simulation time: 0 hr 5 min 44 sec) 
Heartbeat CPU  0 instructions:  179000002 cycles:  271095095 heartbeat IPC: 0.52489 cumulative IPC: 0.39238 (Simulation time: 0 hr 5 min 46 sec) 
Heartbeat CPU  0 instructions:  180000000 cycles:  272981285 heartbeat IPC: 0.53017 cumulative IPC: 0.39366 (Simulation time: 0 hr 5 min 48 sec) 
Heartbeat CPU  0 instructions:  181000003 cycles:  274894039 heartbeat IPC: 0.52281 cumulative IPC: 0.39486 (Simulation time: 0 hr 5 min 50 sec) 
Heartbeat CPU  0 instructions:  182000003 cycles:  276722911 heartbeat IPC: 0.54679 cumulative IPC: 0.39620 (Simulation time: 0 hr 5 min 52 sec) 
Heartbeat CPU  0 instructions:  183000000 cycles:  278534337 heartbeat IPC: 0.55205 cumulative IPC: 0.39756 (Simulation time: 0 hr 5 min 54 sec) 
Heartbeat CPU  0 instructions:  184000000 cycles:  280445799 heartbeat IPC: 0.52316 cumulative IPC: 0.39870 (Simulation time: 0 hr 5 min 57 sec) 
Heartbeat CPU  0 instructions:  185000002 cycles:  282346638 heartbeat IPC: 0.52608 cumulative IPC: 0.39983 (Simulation time: 0 hr 5 min 59 sec) 
Heartbeat CPU  0 instructions:  186000001 cycles:  284106826 heartbeat IPC: 0.56812 cumulative IPC: 0.40122 (Simulation time: 0 hr 6 min 1 sec) 
Heartbeat CPU  0 instructions:  187000000 cycles:  286005924 heartbeat IPC: 0.52657 cumulative IPC: 0.40232 (Simulation time: 0 hr 6 min 3 sec) 
Heartbeat CPU  0 instructions:  188000000 cycles:  287918110 heartbeat IPC: 0.52296 cumulative IPC: 0.40338 (Simulation time: 0 hr 6 min 5 sec) 
Heartbeat CPU  0 instructions:  189000000 cycles:  289689912 heartbeat IPC: 0.56440 cumulative IPC: 0.40467 (Simulation time: 0 hr 6 min 7 sec) 
Heartbeat CPU  0 instructions:  190000000 cycles:  291558963 heartbeat IPC: 0.53503 cumulative IPC: 0.40577 (Simulation time: 0 hr 6 min 9 sec) 
Heartbeat CPU  0 instructions:  191000000 cycles:  293472348 heartbeat IPC: 0.52263 cumulative IPC: 0.40677 (Simulation time: 0 hr 6 min 11 sec) 
Heartbeat CPU  0 instructions:  192000000 cycles:  295316094 heartbeat IPC: 0.54237 cumulative IPC: 0.40788 (Simulation time: 0 hr 6 min 13 sec) 
Heartbeat CPU  0 instructions:  193000001 cycles:  297113006 heartbeat IPC: 0.55651 cumulative IPC: 0.40905 (Simulation time: 0 hr 6 min 15 sec) 
Heartbeat CPU  0 instructions:  194000000 cycles:  299027379 heartbeat IPC: 0.52236 cumulative IPC: 0.41000 (Simulation time: 0 hr 6 min 17 sec) 
Heartbeat CPU  0 instructions:  195000002 cycles:  300927616 heartbeat IPC: 0.52625 cumulative IPC: 0.41096 (Simulation time: 0 hr 6 min 19 sec) 
Heartbeat CPU  0 instructions:  196000000 cycles:  302683970 heartbeat IPC: 0.56936 cumulative IPC: 0.41215 (Simulation time: 0 hr 6 min 21 sec) 
Heartbeat CPU  0 instructions:  197000000 cycles:  304694319 heartbeat IPC: 0.49743 cumulative IPC: 0.41288 (Simulation time: 0 hr 6 min 23 sec) 
Heartbeat CPU  0 instructions:  198000003 cycles:  319001615 heartbeat IPC: 0.06989 cumulative IPC: 0.39319 (Simulation time: 0 hr 6 min 26 sec) 
Heartbeat CPU  0 instructions:  199000001 cycles:  322111828 heartbeat IPC: 0.32152 cumulative IPC: 0.39231 (Simulation time: 0 hr 6 min 28 sec) 
Heartbeat CPU  0 instructions:  200000000 cycles:  323983832 heartbeat IPC: 0.53419 cumulative IPC: 0.39335 (Simulation time: 0 hr 6 min 30 sec) 
Finished CPU 0 instructions: 100000000 cycles: 254224944 cumulative IPC: 0.39335 (Simulation time: 0 hr 6 min 30 sec) 

ChampSim completed all CPUs

[ROI Statistics]
Core_0_instructions 100000000
Core_0_cycles 254224944
Core_0_IPC 0.39335

Core_0_branch_prediction_accuracy 99.16976
Core_0_branch_MPKI 0.01138
Core_0_average_ROB_occupancy_at_mispredict 253.39367

Core_0_L1D_total_access 83628589
Core_0_L1D_total_hit 82787450
Core_0_L1D_total_miss 841139
Core_0_L1D_loads 34096850
Core_0_L1D_load_hit 34067403
Core_0_L1D_load_miss 29447
Core_0_L1D_RFOs 16655435
Core_0_L1D_RFO_hit 16490923
Core_0_L1D_RFO_miss 164512
Core_0_L1D_prefetches 32876304
Core_0_L1D_prefetch_hit 32229124
Core_0_L1D_prefetch_miss 647180
Core_0_L1D_writebacks 0
Core_0_L1D_writeback_hit 0
Core_0_L1D_writeback_miss 0
Core_0_L1D_prefetch_requested 81145318
Core_0_L1D_prefetch_issued 78600334
Core_0_L1D_prefetch_useful 1249384
Core_0_L1D_prefetch_useless 36375
Core_0_L1D_prefetch_late 2674
Core_0_L1D_average_miss_latency 642015.60643

Core_0_L1I_total_access 26517018
Core_0_L1I_total_hit 26517018
Core_0_L1I_total_miss 0
Core_0_L1I_loads 26517018
Core_0_L1I_load_hit 26517018
Core_0_L1I_load_miss 0
Core_0_L1I_RFOs 0
Core_0_L1I_RFO_hit 0
Core_0_L1I_RFO_miss 0
Core_0_L1I_prefetches 0
Core_0_L1I_prefetch_hit 0
Core_0_L1I_prefetch_miss 0
Core_0_L1I_writebacks 0
Core_0_L1I_writeback_hit 0
Core_0_L1I_writeback_miss 0
Core_0_L1I_prefetch_requested 0
Core_0_L1I_prefetch_issued 0
Core_0_L1I_prefetch_useful 0
Core_0_L1I_prefetch_useless 0
Core_0_L1I_prefetch_late 0
Core_0_L1I_average_miss_latency -nan

Core_0_L2C_total_access 1011403
Core_0_L2C_total_hit 468322
Core_0_L2C_total_miss 543081
Core_0_L2C_loads 26802
Core_0_L2C_load_hit 20447
Core_0_L2C_load_miss 6355
Core_0_L2C_RFOs 164419
Core_0_L2C_RFO_hit 275
Core_0_L2C_RFO_miss 164144
Core_0_L2C_prefetches 649898
Core_0_L2C_prefetch_hit 277531
Core_0_L2C_prefetch_miss 372367
Core_0_L2C_writebacks 170284
Core_0_L2C_writeback_hit 170069
Core_0_L2C_writeback_miss 215
Core_0_L2C_prefetch_requested 0
Core_0_L2C_prefetch_issued 0
Core_0_L2C_prefetch_useful 11218
Core_0_L2C_prefetch_useless 705770
Core_0_L2C_prefetch_late 0
Core_0_L2C_average_miss_latency 303.43750

Core_0_LLC_total_access 706730
Core_0_LLC_total_hit 163651
Core_0_LLC_total_miss 543079
Core_0_LLC_loads 6355
Core_0_LLC_load_hit 0
Core_0_LLC_load_miss 6355
Core_0_LLC_RFOs 164144
Core_0_LLC_RFO_hit 0
Core_0_LLC_RFO_miss 164144
Core_0_LLC_prefetches 372367
Core_0_LLC_prefetch_hit 8
Core_0_LLC_prefetch_miss 372359
Core_0_LLC_writebacks 163864
Core_0_LLC_writeback_hit 163643
Core_0_LLC_writeback_miss 221
Core_0_LLC_prefetch_requested 0
Core_0_LLC_prefetch_issued 0
Core_0_LLC_prefetch_useful 0
Core_0_LLC_prefetch_useless 704743
Core_0_LLC_prefetch_late 0
Core_0_LLC_average_miss_latency 231.91305

Core_0_major_page_fault 0
Core_0_minor_page_fault 8761

CPU 0 L1D next line prefetcher final stats
Channel_0_RQ_row_buffer_hit 132792
Channel_0_RQ_row_buffer_miss 410066
Channel_0_WQ_row_buffer_hit 23988
Channel_0_WQ_row_buffer_miss 131573
Channel_0_WQ_full 0
Channel_0_dbus_congested 162881

avg_congested_cycle 10
