*************************************************
   ChampSim Multicore Out-of-Order Simulator
   Last compiled: Dec 22 2023 19:45:08
*************************************************

trace_0 ./test_trace/436.cactusADM-1804B.champsimtrace.xz
Initialize SHIP state
LLC Next Line Prefetcher
warmup_instructions 100000000
simulation_instructions 100000000
champsim_seed 271

num_cpus 1
cpu_freq 4000
dram_io_freq 2400
page_size 4096
block_size 64
max_read_per_cycle 8
max_fill_per_cycle 1
dram_channels 1
dram_ranks 1
dram_banks 8
dram_rows 65536
dram_columns 128
dram_row_size 8
dram_size 4096
dram_pages 1048576

fetch_width 6
decode_width 6
exec_width 4
lq_width 2
sq_width 2
retire_width 4
scheduler_size 128
branch_mispredict_penalty 20
rob_size 256
lq_size 72
sq_size 56
num_instr_destinations_sparc 4
num_instr_destinations 2
num_instr_sources 4

itlb_set 16
itlb_way 8
itlb_rq_size 16
itlb_wq_size 16
itlb_pq_size 0
itlb_mshr_size 8
itlb_latency 1

dtlb_set 16
dtlb_way 4
dtlb_rq_size 16
dtlb_wq_size 16
dtlb_pq_size 0
dtlb_mshr_size 8
dtlb_latency 1

stlb_set 128
stlb_way 12
stlb_rq_size 32
stlb_wq_size 32
stlb_pq_size 0
stlb_mshr_size 16
stlb_latency 8

l1i_size 32
l1i_set 64
l1i_way 8
l1i_rq_size 64
l1i_wq_size 64
l1i_pq_size 8
l1i_mshr_size 8
l1i_latency 1

l1d_size 32
l1d_set 64
l1d_way 8
l1d_rq_size 64
l1d_wq_size 64
l1d_pq_size 8
l1d_mshr_size 16
l1d_latency 4

l2c_size 512
l2c_set 1024
l2c_way 8
l2c_rq_size 32
l2c_wq_size 32
l2c_pq_size 16
l2c_mshr_size 32
l2c_latency 10

llc_size 2048
llc_set 2048
llc_way 16
llc_rq_size 32
llc_wq_size 32
llc_pq_size 32
llc_mshr_size 64
llc_latency 20

dram_channel_width 8
dram_wq_size 64
dram_rq_size 64
tRP 15
tRCD 15
tCAS 12.5
dram_dbus_turn_around_time 30
dram_write_high_wm 56
dram_write_low_wm 48
min_dram_writes_per_switch 16
dram_mtps 2400
dram_dbus_return_time 13


Heartbeat CPU  0 instructions:    1000003 cycles:     702377 heartbeat IPC: 1.42374 cumulative IPC: 1.42374 (Simulation time: 0 hr 0 min 2 sec) 
Heartbeat CPU  0 instructions:    2000000 cycles:    1404542 heartbeat IPC: 1.42416 cumulative IPC: 1.42395 (Simulation time: 0 hr 0 min 3 sec) 
Heartbeat CPU  0 instructions:    3000000 cycles:    2106868 heartbeat IPC: 1.42384 cumulative IPC: 1.42391 (Simulation time: 0 hr 0 min 5 sec) 
Heartbeat CPU  0 instructions:    4000000 cycles:    2809244 heartbeat IPC: 1.42374 cumulative IPC: 1.42387 (Simulation time: 0 hr 0 min 7 sec) 
Heartbeat CPU  0 instructions:    5000000 cycles:    3511420 heartbeat IPC: 1.42414 cumulative IPC: 1.42393 (Simulation time: 0 hr 0 min 9 sec) 
Heartbeat CPU  0 instructions:    6000000 cycles:    4213828 heartbeat IPC: 1.42367 cumulative IPC: 1.42388 (Simulation time: 0 hr 0 min 11 sec) 
Heartbeat CPU  0 instructions:    7000001 cycles:    4916216 heartbeat IPC: 1.42372 cumulative IPC: 1.42386 (Simulation time: 0 hr 0 min 13 sec) 
Heartbeat CPU  0 instructions:    8000000 cycles:    5618346 heartbeat IPC: 1.42424 cumulative IPC: 1.42391 (Simulation time: 0 hr 0 min 14 sec) 
Heartbeat CPU  0 instructions:    9000001 cycles:    6320843 heartbeat IPC: 1.42350 cumulative IPC: 1.42386 (Simulation time: 0 hr 0 min 16 sec) 
Heartbeat CPU  0 instructions:   10000000 cycles:    7023056 heartbeat IPC: 1.42407 cumulative IPC: 1.42388 (Simulation time: 0 hr 0 min 18 sec) 
Heartbeat CPU  0 instructions:   11000002 cycles:    7725249 heartbeat IPC: 1.42411 cumulative IPC: 1.42390 (Simulation time: 0 hr 0 min 20 sec) 
Heartbeat CPU  0 instructions:   12000000 cycles:    8427400 heartbeat IPC: 1.42419 cumulative IPC: 1.42393 (Simulation time: 0 hr 0 min 22 sec) 
Heartbeat CPU  0 instructions:   13000000 cycles:    9129963 heartbeat IPC: 1.42336 cumulative IPC: 1.42388 (Simulation time: 0 hr 0 min 23 sec) 
Heartbeat CPU  0 instructions:   14000002 cycles:    9832194 heartbeat IPC: 1.42404 cumulative IPC: 1.42389 (Simulation time: 0 hr 0 min 25 sec) 
Heartbeat CPU  0 instructions:   15000002 cycles:   10534147 heartbeat IPC: 1.42460 cumulative IPC: 1.42394 (Simulation time: 0 hr 0 min 27 sec) 
Heartbeat CPU  0 instructions:   16000000 cycles:   11236657 heartbeat IPC: 1.42346 cumulative IPC: 1.42391 (Simulation time: 0 hr 0 min 29 sec) 
Heartbeat CPU  0 instructions:   17000000 cycles:   11939207 heartbeat IPC: 1.42339 cumulative IPC: 1.42388 (Simulation time: 0 hr 0 min 31 sec) 
Heartbeat CPU  0 instructions:   18000001 cycles:   12600513 heartbeat IPC: 1.51216 cumulative IPC: 1.42851 (Simulation time: 0 hr 0 min 32 sec) 
Heartbeat CPU  0 instructions:   19000000 cycles:   13236296 heartbeat IPC: 1.57286 cumulative IPC: 1.43545 (Simulation time: 0 hr 0 min 34 sec) 
Heartbeat CPU  0 instructions:   20000000 cycles:   13938789 heartbeat IPC: 1.42350 cumulative IPC: 1.43484 (Simulation time: 0 hr 0 min 36 sec) 
Heartbeat CPU  0 instructions:   21000000 cycles:   14641181 heartbeat IPC: 1.42371 cumulative IPC: 1.43431 (Simulation time: 0 hr 0 min 38 sec) 
Heartbeat CPU  0 instructions:   22000002 cycles:   15343453 heartbeat IPC: 1.42395 cumulative IPC: 1.43384 (Simulation time: 0 hr 0 min 39 sec) 
Heartbeat CPU  0 instructions:   23000001 cycles:   16045869 heartbeat IPC: 1.42366 cumulative IPC: 1.43339 (Simulation time: 0 hr 0 min 41 sec) 
Heartbeat CPU  0 instructions:   24000000 cycles:   16747968 heartbeat IPC: 1.42430 cumulative IPC: 1.43301 (Simulation time: 0 hr 0 min 43 sec) 
Heartbeat CPU  0 instructions:   25000001 cycles:   17450274 heartbeat IPC: 1.42388 cumulative IPC: 1.43264 (Simulation time: 0 hr 0 min 45 sec) 
Heartbeat CPU  0 instructions:   26000003 cycles:   18152937 heartbeat IPC: 1.42316 cumulative IPC: 1.43228 (Simulation time: 0 hr 0 min 47 sec) 
Heartbeat CPU  0 instructions:   27000003 cycles:   18855144 heartbeat IPC: 1.42408 cumulative IPC: 1.43197 (Simulation time: 0 hr 0 min 48 sec) 
Heartbeat CPU  0 instructions:   28000000 cycles:   19557300 heartbeat IPC: 1.42418 cumulative IPC: 1.43169 (Simulation time: 0 hr 0 min 50 sec) 
Heartbeat CPU  0 instructions:   29000000 cycles:   20259684 heartbeat IPC: 1.42372 cumulative IPC: 1.43141 (Simulation time: 0 hr 0 min 52 sec) 
Heartbeat CPU  0 instructions:   30000003 cycles:   20962049 heartbeat IPC: 1.42377 cumulative IPC: 1.43116 (Simulation time: 0 hr 0 min 54 sec) 
Heartbeat CPU  0 instructions:   31000003 cycles:   21663939 heartbeat IPC: 1.42472 cumulative IPC: 1.43095 (Simulation time: 0 hr 0 min 56 sec) 
Heartbeat CPU  0 instructions:   32000000 cycles:   22366036 heartbeat IPC: 1.42430 cumulative IPC: 1.43074 (Simulation time: 0 hr 0 min 57 sec) 
Heartbeat CPU  0 instructions:   33000001 cycles:   23068739 heartbeat IPC: 1.42308 cumulative IPC: 1.43051 (Simulation time: 0 hr 0 min 59 sec) 
Heartbeat CPU  0 instructions:   34000000 cycles:   23770894 heartbeat IPC: 1.42419 cumulative IPC: 1.43032 (Simulation time: 0 hr 1 min 1 sec) 
Heartbeat CPU  0 instructions:   35000001 cycles:   24473124 heartbeat IPC: 1.42404 cumulative IPC: 1.43014 (Simulation time: 0 hr 1 min 3 sec) 
Heartbeat CPU  0 instructions:   36000000 cycles:   25175360 heartbeat IPC: 1.42402 cumulative IPC: 1.42997 (Simulation time: 0 hr 1 min 4 sec) 
Heartbeat CPU  0 instructions:   37000000 cycles:   25877883 heartbeat IPC: 1.42344 cumulative IPC: 1.42979 (Simulation time: 0 hr 1 min 6 sec) 
Heartbeat CPU  0 instructions:   38000001 cycles:   26580099 heartbeat IPC: 1.42406 cumulative IPC: 1.42964 (Simulation time: 0 hr 1 min 8 sec) 
Heartbeat CPU  0 instructions:   39000000 cycles:   27282398 heartbeat IPC: 1.42389 cumulative IPC: 1.42949 (Simulation time: 0 hr 1 min 10 sec) 
Heartbeat CPU  0 instructions:   40000000 cycles:   27984573 heartbeat IPC: 1.42415 cumulative IPC: 1.42936 (Simulation time: 0 hr 1 min 12 sec) 
Heartbeat CPU  0 instructions:   41000000 cycles:   28590588 heartbeat IPC: 1.65012 cumulative IPC: 1.43404 (Simulation time: 0 hr 1 min 13 sec) 
Heartbeat CPU  0 instructions:   42000002 cycles:   29281972 heartbeat IPC: 1.44638 cumulative IPC: 1.43433 (Simulation time: 0 hr 1 min 15 sec) 
Heartbeat CPU  0 instructions:   43000002 cycles:   29984401 heartbeat IPC: 1.42363 cumulative IPC: 1.43408 (Simulation time: 0 hr 1 min 17 sec) 
Heartbeat CPU  0 instructions:   44000000 cycles:   30686841 heartbeat IPC: 1.42361 cumulative IPC: 1.43384 (Simulation time: 0 hr 1 min 19 sec) 
Heartbeat CPU  0 instructions:   45000003 cycles:   31389076 heartbeat IPC: 1.42403 cumulative IPC: 1.43362 (Simulation time: 0 hr 1 min 21 sec) 
Heartbeat CPU  0 instructions:   46000003 cycles:   32091240 heartbeat IPC: 1.42417 cumulative IPC: 1.43341 (Simulation time: 0 hr 1 min 22 sec) 
Heartbeat CPU  0 instructions:   47000000 cycles:   32793404 heartbeat IPC: 1.42416 cumulative IPC: 1.43322 (Simulation time: 0 hr 1 min 24 sec) 
Heartbeat CPU  0 instructions:   48000000 cycles:   33496065 heartbeat IPC: 1.42316 cumulative IPC: 1.43300 (Simulation time: 0 hr 1 min 26 sec) 
Heartbeat CPU  0 instructions:   49000000 cycles:   34198062 heartbeat IPC: 1.42451 cumulative IPC: 1.43283 (Simulation time: 0 hr 1 min 28 sec) 
Heartbeat CPU  0 instructions:   50000000 cycles:   34900406 heartbeat IPC: 1.42380 cumulative IPC: 1.43265 (Simulation time: 0 hr 1 min 30 sec) 
Heartbeat CPU  0 instructions:   51000000 cycles:   35602892 heartbeat IPC: 1.42352 cumulative IPC: 1.43247 (Simulation time: 0 hr 1 min 31 sec) 
Heartbeat CPU  0 instructions:   52000000 cycles:   36305013 heartbeat IPC: 1.42426 cumulative IPC: 1.43231 (Simulation time: 0 hr 1 min 33 sec) 
Heartbeat CPU  0 instructions:   53000000 cycles:   37007400 heartbeat IPC: 1.42372 cumulative IPC: 1.43215 (Simulation time: 0 hr 1 min 35 sec) 
Heartbeat CPU  0 instructions:   54000001 cycles:   37709517 heartbeat IPC: 1.42427 cumulative IPC: 1.43200 (Simulation time: 0 hr 1 min 37 sec) 
Heartbeat CPU  0 instructions:   55000001 cycles:   38411769 heartbeat IPC: 1.42399 cumulative IPC: 1.43185 (Simulation time: 0 hr 1 min 39 sec) 
Heartbeat CPU  0 instructions:   56000000 cycles:   39114233 heartbeat IPC: 1.42356 cumulative IPC: 1.43170 (Simulation time: 0 hr 1 min 40 sec) 
Heartbeat CPU  0 instructions:   57000000 cycles:   39816689 heartbeat IPC: 1.42358 cumulative IPC: 1.43156 (Simulation time: 0 hr 1 min 42 sec) 
Heartbeat CPU  0 instructions:   58000002 cycles:   40518937 heartbeat IPC: 1.42400 cumulative IPC: 1.43143 (Simulation time: 0 hr 1 min 44 sec) 
Heartbeat CPU  0 instructions:   59000000 cycles:   41221085 heartbeat IPC: 1.42420 cumulative IPC: 1.43131 (Simulation time: 0 hr 1 min 46 sec) 
Heartbeat CPU  0 instructions:   60000000 cycles:   41923556 heartbeat IPC: 1.42355 cumulative IPC: 1.43118 (Simulation time: 0 hr 1 min 47 sec) 
Heartbeat CPU  0 instructions:   61000000 cycles:   42625788 heartbeat IPC: 1.42403 cumulative IPC: 1.43106 (Simulation time: 0 hr 1 min 49 sec) 
Heartbeat CPU  0 instructions:   62000002 cycles:   43327950 heartbeat IPC: 1.42418 cumulative IPC: 1.43095 (Simulation time: 0 hr 1 min 51 sec) 
Heartbeat CPU  0 instructions:   63000000 cycles:   43975746 heartbeat IPC: 1.54369 cumulative IPC: 1.43261 (Simulation time: 0 hr 1 min 53 sec) 
Heartbeat CPU  0 instructions:   64000000 cycles:   44627154 heartbeat IPC: 1.53514 cumulative IPC: 1.43410 (Simulation time: 0 hr 1 min 55 sec) 
Heartbeat CPU  0 instructions:   65000000 cycles:   45329222 heartbeat IPC: 1.42436 cumulative IPC: 1.43395 (Simulation time: 0 hr 1 min 56 sec) 
Heartbeat CPU  0 instructions:   66000001 cycles:   46031325 heartbeat IPC: 1.42429 cumulative IPC: 1.43381 (Simulation time: 0 hr 1 min 58 sec) 
Heartbeat CPU  0 instructions:   67000002 cycles:   46733440 heartbeat IPC: 1.42427 cumulative IPC: 1.43366 (Simulation time: 0 hr 2 min 0 sec) 
Heartbeat CPU  0 instructions:   68000000 cycles:   47435826 heartbeat IPC: 1.42372 cumulative IPC: 1.43352 (Simulation time: 0 hr 2 min 2 sec) 
Heartbeat CPU  0 instructions:   69000000 cycles:   48137976 heartbeat IPC: 1.42420 cumulative IPC: 1.43338 (Simulation time: 0 hr 2 min 3 sec) 
Heartbeat CPU  0 instructions:   70000002 cycles:   48840105 heartbeat IPC: 1.42424 cumulative IPC: 1.43325 (Simulation time: 0 hr 2 min 5 sec) 
Heartbeat CPU  0 instructions:   71000003 cycles:   49542722 heartbeat IPC: 1.42325 cumulative IPC: 1.43311 (Simulation time: 0 hr 2 min 7 sec) 
Heartbeat CPU  0 instructions:   72000000 cycles:   50244805 heartbeat IPC: 1.42433 cumulative IPC: 1.43298 (Simulation time: 0 hr 2 min 9 sec) 
Heartbeat CPU  0 instructions:   73000001 cycles:   50946868 heartbeat IPC: 1.42438 cumulative IPC: 1.43287 (Simulation time: 0 hr 2 min 11 sec) 
Heartbeat CPU  0 instructions:   74000003 cycles:   51649248 heartbeat IPC: 1.42373 cumulative IPC: 1.43274 (Simulation time: 0 hr 2 min 12 sec) 
Heartbeat CPU  0 instructions:   75000002 cycles:   52351883 heartbeat IPC: 1.42321 cumulative IPC: 1.43261 (Simulation time: 0 hr 2 min 14 sec) 
Heartbeat CPU  0 instructions:   76000000 cycles:   53054098 heartbeat IPC: 1.42406 cumulative IPC: 1.43250 (Simulation time: 0 hr 2 min 16 sec) 
Heartbeat CPU  0 instructions:   77000003 cycles:   53756704 heartbeat IPC: 1.42328 cumulative IPC: 1.43238 (Simulation time: 0 hr 2 min 18 sec) 
Heartbeat CPU  0 instructions:   78000001 cycles:   54459253 heartbeat IPC: 1.42339 cumulative IPC: 1.43226 (Simulation time: 0 hr 2 min 20 sec) 
Heartbeat CPU  0 instructions:   79000001 cycles:   55161133 heartbeat IPC: 1.42474 cumulative IPC: 1.43217 (Simulation time: 0 hr 2 min 21 sec) 
Heartbeat CPU  0 instructions:   80000000 cycles:   55863123 heartbeat IPC: 1.42452 cumulative IPC: 1.43207 (Simulation time: 0 hr 2 min 23 sec) 
Heartbeat CPU  0 instructions:   81000002 cycles:   56565528 heartbeat IPC: 1.42368 cumulative IPC: 1.43197 (Simulation time: 0 hr 2 min 25 sec) 
Heartbeat CPU  0 instructions:   82000000 cycles:   57267778 heartbeat IPC: 1.42399 cumulative IPC: 1.43187 (Simulation time: 0 hr 2 min 27 sec) 
Heartbeat CPU  0 instructions:   83000001 cycles:   57970023 heartbeat IPC: 1.42401 cumulative IPC: 1.43177 (Simulation time: 0 hr 2 min 29 sec) 
Heartbeat CPU  0 instructions:   84000000 cycles:   58672268 heartbeat IPC: 1.42400 cumulative IPC: 1.43168 (Simulation time: 0 hr 2 min 30 sec) 
Heartbeat CPU  0 instructions:   85000000 cycles:   59360989 heartbeat IPC: 1.45197 cumulative IPC: 1.43192 (Simulation time: 0 hr 2 min 32 sec) 
Heartbeat CPU  0 instructions:   86000002 cycles:   59971001 heartbeat IPC: 1.63932 cumulative IPC: 1.43403 (Simulation time: 0 hr 2 min 34 sec) 
Heartbeat CPU  0 instructions:   87000002 cycles:   60673470 heartbeat IPC: 1.42355 cumulative IPC: 1.43391 (Simulation time: 0 hr 2 min 36 sec) 
Heartbeat CPU  0 instructions:   88000000 cycles:   61376122 heartbeat IPC: 1.42318 cumulative IPC: 1.43378 (Simulation time: 0 hr 2 min 37 sec) 
Heartbeat CPU  0 instructions:   89000001 cycles:   62078165 heartbeat IPC: 1.42442 cumulative IPC: 1.43368 (Simulation time: 0 hr 2 min 39 sec) 
Heartbeat CPU  0 instructions:   90000003 cycles:   62780544 heartbeat IPC: 1.42374 cumulative IPC: 1.43357 (Simulation time: 0 hr 2 min 41 sec) 
Heartbeat CPU  0 instructions:   91000003 cycles:   63482952 heartbeat IPC: 1.42367 cumulative IPC: 1.43346 (Simulation time: 0 hr 2 min 43 sec) 
Heartbeat CPU  0 instructions:   92000000 cycles:   64185216 heartbeat IPC: 1.42396 cumulative IPC: 1.43335 (Simulation time: 0 hr 2 min 45 sec) 
Heartbeat CPU  0 instructions:   93000002 cycles:   64887563 heartbeat IPC: 1.42380 cumulative IPC: 1.43325 (Simulation time: 0 hr 2 min 46 sec) 
Heartbeat CPU  0 instructions:   94000002 cycles:   65589575 heartbeat IPC: 1.42448 cumulative IPC: 1.43315 (Simulation time: 0 hr 2 min 48 sec) 
Heartbeat CPU  0 instructions:   95000003 cycles:   66291799 heartbeat IPC: 1.42405 cumulative IPC: 1.43306 (Simulation time: 0 hr 2 min 50 sec) 
Heartbeat CPU  0 instructions:   96000000 cycles:   66994107 heartbeat IPC: 1.42387 cumulative IPC: 1.43296 (Simulation time: 0 hr 2 min 52 sec) 
Heartbeat CPU  0 instructions:   97000000 cycles:   67696432 heartbeat IPC: 1.42384 cumulative IPC: 1.43287 (Simulation time: 0 hr 2 min 54 sec) 
Heartbeat CPU  0 instructions:   98000002 cycles:   68398614 heartbeat IPC: 1.42414 cumulative IPC: 1.43278 (Simulation time: 0 hr 2 min 55 sec) 
Heartbeat CPU  0 instructions:   99000003 cycles:   69100829 heartbeat IPC: 1.42407 cumulative IPC: 1.43269 (Simulation time: 0 hr 2 min 57 sec) 
Heartbeat CPU  0 instructions:  100000000 cycles:   69803149 heartbeat IPC: 1.42385 cumulative IPC: 1.43260 (Simulation time: 0 hr 2 min 59 sec) 

Warmup complete CPU  0 instructions:  100000001 cycles:   69803169 (Simulation time: 0 hr 2 min 59 sec) 

Heartbeat CPU  0 instructions:  101000000 cycles:   71765573 heartbeat IPC: 0.50957 cumulative IPC: 0.50958 (Simulation time: 0 hr 3 min 1 sec) 
Heartbeat CPU  0 instructions:  102000003 cycles:   73558528 heartbeat IPC: 0.55774 cumulative IPC: 0.53257 (Simulation time: 0 hr 3 min 3 sec) 
Heartbeat CPU  0 instructions:  103000003 cycles:   75462077 heartbeat IPC: 0.52533 cumulative IPC: 0.53014 (Simulation time: 0 hr 3 min 5 sec) 
Heartbeat CPU  0 instructions:  104000000 cycles:   77413460 heartbeat IPC: 0.51246 cumulative IPC: 0.52560 (Simulation time: 0 hr 3 min 7 sec) 
Heartbeat CPU  0 instructions:  105000002 cycles:   79286400 heartbeat IPC: 0.53392 cumulative IPC: 0.52725 (Simulation time: 0 hr 3 min 9 sec) 
Heartbeat CPU  0 instructions:  106000000 cycles:   81119673 heartbeat IPC: 0.54547 cumulative IPC: 0.53020 (Simulation time: 0 hr 3 min 11 sec) 
Heartbeat CPU  0 instructions:  107000003 cycles:   83067289 heartbeat IPC: 0.51345 cumulative IPC: 0.52774 (Simulation time: 0 hr 3 min 13 sec) 
Heartbeat CPU  0 instructions:  108000000 cycles:   93959211 heartbeat IPC: 0.09181 cumulative IPC: 0.33118 (Simulation time: 0 hr 3 min 16 sec) 
Heartbeat CPU  0 instructions:  109000003 cycles:  100836718 heartbeat IPC: 0.14540 cumulative IPC: 0.29001 (Simulation time: 0 hr 3 min 18 sec) 
Heartbeat CPU  0 instructions:  110000001 cycles:  102783266 heartbeat IPC: 0.51373 cumulative IPC: 0.30321 (Simulation time: 0 hr 3 min 20 sec) 
Heartbeat CPU  0 instructions:  111000000 cycles:  104737378 heartbeat IPC: 0.51174 cumulative IPC: 0.31488 (Simulation time: 0 hr 3 min 22 sec) 
Heartbeat CPU  0 instructions:  112000000 cycles:  106541091 heartbeat IPC: 0.55441 cumulative IPC: 0.32664 (Simulation time: 0 hr 3 min 24 sec) 
Heartbeat CPU  0 instructions:  113000000 cycles:  108447470 heartbeat IPC: 0.52455 cumulative IPC: 0.33640 (Simulation time: 0 hr 3 min 26 sec) 
Heartbeat CPU  0 instructions:  114000000 cycles:  110411586 heartbeat IPC: 0.50913 cumulative IPC: 0.34476 (Simulation time: 0 hr 3 min 28 sec) 
Heartbeat CPU  0 instructions:  115000001 cycles:  112283304 heartbeat IPC: 0.53427 cumulative IPC: 0.35311 (Simulation time: 0 hr 3 min 30 sec) 
Heartbeat CPU  0 instructions:  116000000 cycles:  114116371 heartbeat IPC: 0.54553 cumulative IPC: 0.36107 (Simulation time: 0 hr 3 min 32 sec) 
Heartbeat CPU  0 instructions:  117000003 cycles:  116071574 heartbeat IPC: 0.51146 cumulative IPC: 0.36742 (Simulation time: 0 hr 3 min 34 sec) 
Heartbeat CPU  0 instructions:  118000002 cycles:  118011999 heartbeat IPC: 0.51535 cumulative IPC: 0.37338 (Simulation time: 0 hr 3 min 36 sec) 
Heartbeat CPU  0 instructions:  119000002 cycles:  119794221 heartbeat IPC: 0.56110 cumulative IPC: 0.38007 (Simulation time: 0 hr 3 min 38 sec) 
Heartbeat CPU  0 instructions:  120000000 cycles:  121735691 heartbeat IPC: 0.51507 cumulative IPC: 0.38512 (Simulation time: 0 hr 3 min 40 sec) 
Heartbeat CPU  0 instructions:  121000003 cycles:  123688446 heartbeat IPC: 0.51210 cumulative IPC: 0.38972 (Simulation time: 0 hr 3 min 42 sec) 
Heartbeat CPU  0 instructions:  122000000 cycles:  125504444 heartbeat IPC: 0.55066 cumulative IPC: 0.39496 (Simulation time: 0 hr 3 min 44 sec) 
Heartbeat CPU  0 instructions:  123000002 cycles:  127394395 heartbeat IPC: 0.52912 cumulative IPC: 0.39937 (Simulation time: 0 hr 3 min 46 sec) 
Heartbeat CPU  0 instructions:  124000000 cycles:  129351101 heartbeat IPC: 0.51106 cumulative IPC: 0.40304 (Simulation time: 0 hr 3 min 48 sec) 
Heartbeat CPU  0 instructions:  125000000 cycles:  131246049 heartbeat IPC: 0.52772 cumulative IPC: 0.40688 (Simulation time: 0 hr 3 min 50 sec) 
Heartbeat CPU  0 instructions:  126000002 cycles:  133074987 heartbeat IPC: 0.54677 cumulative IPC: 0.41093 (Simulation time: 0 hr 3 min 53 sec) 
Heartbeat CPU  0 instructions:  127000002 cycles:  135148048 heartbeat IPC: 0.48238 cumulative IPC: 0.41319 (Simulation time: 0 hr 3 min 55 sec) 
Heartbeat CPU  0 instructions:  128000000 cycles:  137093015 heartbeat IPC: 0.51415 cumulative IPC: 0.41611 (Simulation time: 0 hr 3 min 57 sec) 
Heartbeat CPU  0 instructions:  129000001 cycles:  138873377 heartbeat IPC: 0.56168 cumulative IPC: 0.41986 (Simulation time: 0 hr 3 min 59 sec) 
Heartbeat CPU  0 instructions:  130000000 cycles:  144473544 heartbeat IPC: 0.17857 cumulative IPC: 0.40177 (Simulation time: 0 hr 4 min 1 sec) 
Heartbeat CPU  0 instructions:  131000003 cycles:  156760565 heartbeat IPC: 0.08139 cumulative IPC: 0.35650 (Simulation time: 0 hr 4 min 3 sec) 
Heartbeat CPU  0 instructions:  132000000 cycles:  158578156 heartbeat IPC: 0.55018 cumulative IPC: 0.36046 (Simulation time: 0 hr 4 min 6 sec) 
Heartbeat CPU  0 instructions:  133000000 cycles:  160469634 heartbeat IPC: 0.52869 cumulative IPC: 0.36397 (Simulation time: 0 hr 4 min 8 sec) 
Heartbeat CPU  0 instructions:  134000000 cycles:  162426264 heartbeat IPC: 0.51108 cumulative IPC: 0.36708 (Simulation time: 0 hr 4 min 10 sec) 
Heartbeat CPU  0 instructions:  135000000 cycles:  164318000 heartbeat IPC: 0.52861 cumulative IPC: 0.37031 (Simulation time: 0 hr 4 min 12 sec) 
Heartbeat CPU  0 instructions:  136000000 cycles:  166135213 heartbeat IPC: 0.55029 cumulative IPC: 0.37371 (Simulation time: 0 hr 4 min 14 sec) 
Heartbeat CPU  0 instructions:  137000002 cycles:  168090527 heartbeat IPC: 0.51143 cumulative IPC: 0.37645 (Simulation time: 0 hr 4 min 16 sec) 
Heartbeat CPU  0 instructions:  138000000 cycles:  170035544 heartbeat IPC: 0.51413 cumulative IPC: 0.37912 (Simulation time: 0 hr 4 min 18 sec) 
Heartbeat CPU  0 instructions:  139000001 cycles:  171815094 heartbeat IPC: 0.56194 cumulative IPC: 0.38231 (Simulation time: 0 hr 4 min 20 sec) 
Heartbeat CPU  0 instructions:  140000000 cycles:  173759353 heartbeat IPC: 0.51433 cumulative IPC: 0.38478 (Simulation time: 0 hr 4 min 22 sec) 
Heartbeat CPU  0 instructions:  141000000 cycles:  175715351 heartbeat IPC: 0.51125 cumulative IPC: 0.38711 (Simulation time: 0 hr 4 min 24 sec) 
Heartbeat CPU  0 instructions:  142000001 cycles:  177547155 heartbeat IPC: 0.54591 cumulative IPC: 0.38981 (Simulation time: 0 hr 4 min 26 sec) 
Heartbeat CPU  0 instructions:  143000001 cycles:  179420843 heartbeat IPC: 0.53371 cumulative IPC: 0.39227 (Simulation time: 0 hr 4 min 28 sec) 
Heartbeat CPU  0 instructions:  144000000 cycles:  181378331 heartbeat IPC: 0.51086 cumulative IPC: 0.39435 (Simulation time: 0 hr 4 min 30 sec) 
Heartbeat CPU  0 instructions:  145000000 cycles:  183288721 heartbeat IPC: 0.52345 cumulative IPC: 0.39653 (Simulation time: 0 hr 4 min 32 sec) 
Heartbeat CPU  0 instructions:  146000002 cycles:  185091990 heartbeat IPC: 0.55455 cumulative IPC: 0.39900 (Simulation time: 0 hr 4 min 34 sec) 
Heartbeat CPU  0 instructions:  147000003 cycles:  187044206 heartbeat IPC: 0.51224 cumulative IPC: 0.40088 (Simulation time: 0 hr 4 min 36 sec) 
Heartbeat CPU  0 instructions:  148000000 cycles:  188990449 heartbeat IPC: 0.51381 cumulative IPC: 0.40273 (Simulation time: 0 hr 4 min 38 sec) 
Heartbeat CPU  0 instructions:  149000002 cycles:  190777433 heartbeat IPC: 0.55960 cumulative IPC: 0.40504 (Simulation time: 0 hr 4 min 40 sec) 
Heartbeat CPU  0 instructions:  150000003 cycles:  192707673 heartbeat IPC: 0.51807 cumulative IPC: 0.40682 (Simulation time: 0 hr 4 min 43 sec) 
Heartbeat CPU  0 instructions:  151000003 cycles:  194659383 heartbeat IPC: 0.51237 cumulative IPC: 0.40847 (Simulation time: 0 hr 4 min 45 sec) 
Heartbeat CPU  0 instructions:  152000000 cycles:  196521071 heartbeat IPC: 0.53715 cumulative IPC: 0.41036 (Simulation time: 0 hr 4 min 47 sec) 
Heartbeat CPU  0 instructions:  153000003 cycles:  209512657 heartbeat IPC: 0.07697 cumulative IPC: 0.37936 (Simulation time: 0 hr 4 min 49 sec) 
Heartbeat CPU  0 instructions:  154000000 cycles:  214550758 heartbeat IPC: 0.19849 cumulative IPC: 0.37306 (Simulation time: 0 hr 4 min 51 sec) 
Heartbeat CPU  0 instructions:  155000000 cycles:  216460302 heartbeat IPC: 0.52369 cumulative IPC: 0.37502 (Simulation time: 0 hr 4 min 53 sec) 
Heartbeat CPU  0 instructions:  156000000 cycles:  218259947 heartbeat IPC: 0.55567 cumulative IPC: 0.37721 (Simulation time: 0 hr 4 min 55 sec) 
Heartbeat CPU  0 instructions:  157000001 cycles:  220211933 heartbeat IPC: 0.51230 cumulative IPC: 0.37897 (Simulation time: 0 hr 4 min 58 sec) 
Heartbeat CPU  0 instructions:  158000001 cycles:  222160601 heartbeat IPC: 0.51317 cumulative IPC: 0.38068 (Simulation time: 0 hr 5 min 0 sec) 
Heartbeat CPU  0 instructions:  159000000 cycles:  223945564 heartbeat IPC: 0.56024 cumulative IPC: 0.38276 (Simulation time: 0 hr 5 min 2 sec) 
Heartbeat CPU  0 instructions:  160000000 cycles:  225879196 heartbeat IPC: 0.51716 cumulative IPC: 0.38443 (Simulation time: 0 hr 5 min 4 sec) 
Heartbeat CPU  0 instructions:  161000003 cycles:  227837063 heartbeat IPC: 0.51076 cumulative IPC: 0.38599 (Simulation time: 0 hr 5 min 6 sec) 
Heartbeat CPU  0 instructions:  162000000 cycles:  229687076 heartbeat IPC: 0.54054 cumulative IPC: 0.38778 (Simulation time: 0 hr 5 min 8 sec) 
Heartbeat CPU  0 instructions:  163000003 cycles:  231546054 heartbeat IPC: 0.53793 cumulative IPC: 0.38951 (Simulation time: 0 hr 5 min 10 sec) 
Heartbeat CPU  0 instructions:  164000000 cycles:  233498918 heartbeat IPC: 0.51207 cumulative IPC: 0.39097 (Simulation time: 0 hr 5 min 12 sec) 
Heartbeat CPU  0 instructions:  165000000 cycles:  235434317 heartbeat IPC: 0.51669 cumulative IPC: 0.39244 (Simulation time: 0 hr 5 min 14 sec) 
Heartbeat CPU  0 instructions:  166000001 cycles:  237217482 heartbeat IPC: 0.56080 cumulative IPC: 0.39423 (Simulation time: 0 hr 5 min 16 sec) 
Heartbeat CPU  0 instructions:  167000000 cycles:  239167182 heartbeat IPC: 0.51290 cumulative IPC: 0.39560 (Simulation time: 0 hr 5 min 18 sec) 
Heartbeat CPU  0 instructions:  168000000 cycles:  241117814 heartbeat IPC: 0.51265 cumulative IPC: 0.39693 (Simulation time: 0 hr 5 min 20 sec) 
Heartbeat CPU  0 instructions:  169000001 cycles:  242912875 heartbeat IPC: 0.55708 cumulative IPC: 0.39859 (Simulation time: 0 hr 5 min 22 sec) 
Heartbeat CPU  0 instructions:  170000002 cycles:  244827554 heartbeat IPC: 0.52228 cumulative IPC: 0.39994 (Simulation time: 0 hr 5 min 24 sec) 
Heartbeat CPU  0 instructions:  171000001 cycles:  246785223 heartbeat IPC: 0.51081 cumulative IPC: 0.40117 (Simulation time: 0 hr 5 min 27 sec) 
Heartbeat CPU  0 instructions:  172000000 cycles:  248654163 heartbeat IPC: 0.53506 cumulative IPC: 0.40257 (Simulation time: 0 hr 5 min 29 sec) 
Heartbeat CPU  0 instructions:  173000000 cycles:  250495007 heartbeat IPC: 0.54323 cumulative IPC: 0.40400 (Simulation time: 0 hr 5 min 31 sec) 
Heartbeat CPU  0 instructions:  174000003 cycles:  252450856 heartbeat IPC: 0.51129 cumulative IPC: 0.40515 (Simulation time: 0 hr 5 min 33 sec) 
Heartbeat CPU  0 instructions:  175000000 cycles:  259739811 heartbeat IPC: 0.13719 cumulative IPC: 0.39487 (Simulation time: 0 hr 5 min 35 sec) 
Heartbeat CPU  0 instructions:  176000000 cycles:  270191691 heartbeat IPC: 0.09568 cumulative IPC: 0.37926 (Simulation time: 0 hr 5 min 37 sec) 
Heartbeat CPU  0 instructions:  177000001 cycles:  272212757 heartbeat IPC: 0.49479 cumulative IPC: 0.38042 (Simulation time: 0 hr 5 min 39 sec) 
Heartbeat CPU  0 instructions:  178000003 cycles:  274316415 heartbeat IPC: 0.47536 cumulative IPC: 0.38139 (Simulation time: 0 hr 5 min 42 sec) 
Heartbeat CPU  0 instructions:  179000002 cycles:  276278731 heartbeat IPC: 0.50960 cumulative IPC: 0.38261 (Simulation time: 0 hr 5 min 44 sec) 
Heartbeat CPU  0 instructions:  180000000 cycles:  278221599 heartbeat IPC: 0.51470 cumulative IPC: 0.38384 (Simulation time: 0 hr 5 min 46 sec) 
Heartbeat CPU  0 instructions:  181000003 cycles:  280191946 heartbeat IPC: 0.50753 cumulative IPC: 0.38500 (Simulation time: 0 hr 5 min 48 sec) 
Heartbeat CPU  0 instructions:  182000003 cycles:  282077376 heartbeat IPC: 0.53038 cumulative IPC: 0.38629 (Simulation time: 0 hr 5 min 50 sec) 
Heartbeat CPU  0 instructions:  183000000 cycles:  283945769 heartbeat IPC: 0.53522 cumulative IPC: 0.38759 (Simulation time: 0 hr 5 min 52 sec) 
Heartbeat CPU  0 instructions:  184000000 cycles:  285914478 heartbeat IPC: 0.50795 cumulative IPC: 0.38869 (Simulation time: 0 hr 5 min 54 sec) 
Heartbeat CPU  0 instructions:  185000002 cycles:  287871874 heartbeat IPC: 0.51088 cumulative IPC: 0.38979 (Simulation time: 0 hr 5 min 56 sec) 
Heartbeat CPU  0 instructions:  186000001 cycles:  289688981 heartbeat IPC: 0.55032 cumulative IPC: 0.39111 (Simulation time: 0 hr 5 min 58 sec) 
Heartbeat CPU  0 instructions:  187000000 cycles:  291645891 heartbeat IPC: 0.51101 cumulative IPC: 0.39217 (Simulation time: 0 hr 6 min 0 sec) 
Heartbeat CPU  0 instructions:  188000000 cycles:  293614473 heartbeat IPC: 0.50798 cumulative IPC: 0.39319 (Simulation time: 0 hr 6 min 2 sec) 
Heartbeat CPU  0 instructions:  189000000 cycles:  295443119 heartbeat IPC: 0.54685 cumulative IPC: 0.39443 (Simulation time: 0 hr 6 min 4 sec) 
Heartbeat CPU  0 instructions:  190000000 cycles:  297369359 heartbeat IPC: 0.51915 cumulative IPC: 0.39549 (Simulation time: 0 hr 6 min 6 sec) 
Heartbeat CPU  0 instructions:  191000000 cycles:  299340200 heartbeat IPC: 0.50740 cumulative IPC: 0.39645 (Simulation time: 0 hr 6 min 8 sec) 
Heartbeat CPU  0 instructions:  192000000 cycles:  301239877 heartbeat IPC: 0.52641 cumulative IPC: 0.39752 (Simulation time: 0 hr 6 min 11 sec) 
Heartbeat CPU  0 instructions:  193000001 cycles:  303093630 heartbeat IPC: 0.53945 cumulative IPC: 0.39864 (Simulation time: 0 hr 6 min 13 sec) 
Heartbeat CPU  0 instructions:  194000000 cycles:  305065486 heartbeat IPC: 0.50714 cumulative IPC: 0.39955 (Simulation time: 0 hr 6 min 15 sec) 
Heartbeat CPU  0 instructions:  195000002 cycles:  307021911 heartbeat IPC: 0.51114 cumulative IPC: 0.40047 (Simulation time: 0 hr 6 min 17 sec) 
Heartbeat CPU  0 instructions:  196000000 cycles:  308834678 heartbeat IPC: 0.55164 cumulative IPC: 0.40162 (Simulation time: 0 hr 6 min 19 sec) 
Heartbeat CPU  0 instructions:  197000000 cycles:  310902270 heartbeat IPC: 0.48365 cumulative IPC: 0.40232 (Simulation time: 0 hr 6 min 21 sec) 
Heartbeat CPU  0 instructions:  198000003 cycles:  325410125 heartbeat IPC: 0.06893 cumulative IPC: 0.38340 (Simulation time: 0 hr 6 min 24 sec) 
Heartbeat CPU  0 instructions:  199000001 cycles:  328595541 heartbeat IPC: 0.31393 cumulative IPC: 0.38255 (Simulation time: 0 hr 6 min 26 sec) 
Heartbeat CPU  0 instructions:  200000000 cycles:  330525496 heartbeat IPC: 0.51815 cumulative IPC: 0.38355 (Simulation time: 0 hr 6 min 28 sec) 
Finished CPU 0 instructions: 100000000 cycles: 260722355 cumulative IPC: 0.38355 (Simulation time: 0 hr 6 min 28 sec) 

ChampSim completed all CPUs

[ROI Statistics]
Core_0_instructions 100000000
Core_0_cycles 260722355
Core_0_IPC 0.38355

Core_0_branch_prediction_accuracy 99.16976
Core_0_branch_MPKI 0.01138
Core_0_average_ROB_occupancy_at_mispredict 253.39104

Core_0_L1D_total_access 50886394
Core_0_L1D_total_hit 50063689
Core_0_L1D_total_miss 822705
Core_0_L1D_loads 34195237
Core_0_L1D_load_hit 33536773
Core_0_L1D_load_miss 658464
Core_0_L1D_RFOs 16691157
Core_0_L1D_RFO_hit 16526916
Core_0_L1D_RFO_miss 164241
Core_0_L1D_prefetches 0
Core_0_L1D_prefetch_hit 0
Core_0_L1D_prefetch_miss 0
Core_0_L1D_writebacks 0
Core_0_L1D_writeback_hit 0
Core_0_L1D_writeback_miss 0
Core_0_L1D_prefetch_requested 0
Core_0_L1D_prefetch_issued 0
Core_0_L1D_prefetch_useful 0
Core_0_L1D_prefetch_useless 0
Core_0_L1D_prefetch_late 0
Core_0_L1D_average_miss_latency 125.27805

Core_0_L1I_total_access 26775497
Core_0_L1I_total_hit 26775497
Core_0_L1I_total_miss 0
Core_0_L1I_loads 26775497
Core_0_L1I_load_hit 26775497
Core_0_L1I_load_miss 0
Core_0_L1I_RFOs 0
Core_0_L1I_RFO_hit 0
Core_0_L1I_RFO_miss 0
Core_0_L1I_prefetches 0
Core_0_L1I_prefetch_hit 0
Core_0_L1I_prefetch_miss 0
Core_0_L1I_writebacks 0
Core_0_L1I_writeback_hit 0
Core_0_L1I_writeback_miss 0
Core_0_L1I_prefetch_requested 0
Core_0_L1I_prefetch_issued 0
Core_0_L1I_prefetch_useful 0
Core_0_L1I_prefetch_useless 0
Core_0_L1I_prefetch_late 0
Core_0_L1I_average_miss_latency -nan

Core_0_L2C_total_access 993837
Core_0_L2C_total_hit 450958
Core_0_L2C_total_miss 542879
Core_0_L2C_loads 658464
Core_0_L2C_load_hit 280000
Core_0_L2C_load_miss 378464
Core_0_L2C_RFOs 164241
Core_0_L2C_RFO_hit 16
Core_0_L2C_RFO_miss 164225
Core_0_L2C_prefetches 0
Core_0_L2C_prefetch_hit 0
Core_0_L2C_prefetch_miss 0
Core_0_L2C_writebacks 171132
Core_0_L2C_writeback_hit 170942
Core_0_L2C_writeback_miss 190
Core_0_L2C_prefetch_requested 0
Core_0_L2C_prefetch_issued 0
Core_0_L2C_prefetch_useful 0
Core_0_L2C_prefetch_useless 0
Core_0_L2C_prefetch_late 0
Core_0_L2C_average_miss_latency 132.64920

Core_0_LLC_total_access 1078642
Core_0_LLC_total_hit 377195
Core_0_LLC_total_miss 701447
Core_0_LLC_loads 378464
Core_0_LLC_load_hit 371735
Core_0_LLC_load_miss 6729
Core_0_LLC_RFOs 164225
Core_0_LLC_RFO_hit 2638
Core_0_LLC_RFO_miss 161587
Core_0_LLC_prefetches 372142
Core_0_LLC_prefetch_hit 175
Core_0_LLC_prefetch_miss 371967
Core_0_LLC_writebacks 163811
Core_0_LLC_writeback_hit 2647
Core_0_LLC_writeback_miss 161164
Core_0_LLC_prefetch_requested 736928
Core_0_LLC_prefetch_issued 725409
Core_0_LLC_prefetch_useful 723962
Core_0_LLC_prefetch_useless 410
Core_0_LLC_prefetch_late 372
Core_0_LLC_average_miss_latency 175.61421

Core_0_major_page_fault 0
Core_0_minor_page_fault 8761

LLC Next Line Prefetcher Final Stats: none
Channel_0_RQ_row_buffer_hit 132359
Channel_0_RQ_row_buffer_miss 407924
Channel_0_WQ_row_buffer_hit 22016
Channel_0_WQ_row_buffer_miss 136491
Channel_0_WQ_full 0
Channel_0_dbus_congested 165322

avg_congested_cycle 10
