*************************************************
   ChampSim Multicore Out-of-Order Simulator
   Last compiled: Dec 22 2023 18:04:27
*************************************************

trace_0 ./test_trace/436.cactusADM-1804B.champsimtrace.xz
CPU 0 L2C IP-based stride prefetcher
Initialize SRRIP state
LLC Next Line Prefetcher
warmup_instructions 100000000
simulation_instructions 100000000
champsim_seed 271

num_cpus 1
cpu_freq 4000
dram_io_freq 2400
page_size 4096
block_size 64
max_read_per_cycle 8
max_fill_per_cycle 1
dram_channels 1
dram_ranks 1
dram_banks 8
dram_rows 65536
dram_columns 128
dram_row_size 8
dram_size 4096
dram_pages 1048576

fetch_width 6
decode_width 6
exec_width 4
lq_width 2
sq_width 2
retire_width 4
scheduler_size 128
branch_mispredict_penalty 20
rob_size 256
lq_size 72
sq_size 56
num_instr_destinations_sparc 4
num_instr_destinations 2
num_instr_sources 4

itlb_set 16
itlb_way 8
itlb_rq_size 16
itlb_wq_size 16
itlb_pq_size 0
itlb_mshr_size 8
itlb_latency 1

dtlb_set 16
dtlb_way 4
dtlb_rq_size 16
dtlb_wq_size 16
dtlb_pq_size 0
dtlb_mshr_size 8
dtlb_latency 1

stlb_set 128
stlb_way 12
stlb_rq_size 32
stlb_wq_size 32
stlb_pq_size 0
stlb_mshr_size 16
stlb_latency 8

l1i_size 32
l1i_set 64
l1i_way 8
l1i_rq_size 64
l1i_wq_size 64
l1i_pq_size 8
l1i_mshr_size 8
l1i_latency 1

l1d_size 32
l1d_set 64
l1d_way 8
l1d_rq_size 64
l1d_wq_size 64
l1d_pq_size 8
l1d_mshr_size 16
l1d_latency 4

l2c_size 512
l2c_set 1024
l2c_way 8
l2c_rq_size 32
l2c_wq_size 32
l2c_pq_size 16
l2c_mshr_size 32
l2c_latency 10

llc_size 2048
llc_set 2048
llc_way 16
llc_rq_size 32
llc_wq_size 32
llc_pq_size 32
llc_mshr_size 64
llc_latency 20

dram_channel_width 8
dram_wq_size 64
dram_rq_size 64
tRP 15
tRCD 15
tCAS 12.5
dram_dbus_turn_around_time 30
dram_write_high_wm 56
dram_write_low_wm 48
min_dram_writes_per_switch 16
dram_mtps 2400
dram_dbus_return_time 13


Heartbeat CPU  0 instructions:    1000000 cycles:     702369 heartbeat IPC: 1.42375 cumulative IPC: 1.42375 (Simulation time: 0 hr 0 min 2 sec) 
Heartbeat CPU  0 instructions:    2000000 cycles:    1404556 heartbeat IPC: 1.42412 cumulative IPC: 1.42394 (Simulation time: 0 hr 0 min 4 sec) 
Heartbeat CPU  0 instructions:    3000000 cycles:    2106847 heartbeat IPC: 1.42391 cumulative IPC: 1.42393 (Simulation time: 0 hr 0 min 6 sec) 
Heartbeat CPU  0 instructions:    4000000 cycles:    2809163 heartbeat IPC: 1.42386 cumulative IPC: 1.42391 (Simulation time: 0 hr 0 min 7 sec) 
Heartbeat CPU  0 instructions:    5000000 cycles:    3511354 heartbeat IPC: 1.42411 cumulative IPC: 1.42395 (Simulation time: 0 hr 0 min 9 sec) 
Heartbeat CPU  0 instructions:    6000000 cycles:    4213672 heartbeat IPC: 1.42386 cumulative IPC: 1.42394 (Simulation time: 0 hr 0 min 11 sec) 
Heartbeat CPU  0 instructions:    7000001 cycles:    4916060 heartbeat IPC: 1.42372 cumulative IPC: 1.42390 (Simulation time: 0 hr 0 min 13 sec) 
Heartbeat CPU  0 instructions:    8000000 cycles:    5618162 heartbeat IPC: 1.42429 cumulative IPC: 1.42395 (Simulation time: 0 hr 0 min 14 sec) 
Heartbeat CPU  0 instructions:    9000001 cycles:    6320656 heartbeat IPC: 1.42350 cumulative IPC: 1.42390 (Simulation time: 0 hr 0 min 16 sec) 
Heartbeat CPU  0 instructions:   10000000 cycles:    7022824 heartbeat IPC: 1.42416 cumulative IPC: 1.42393 (Simulation time: 0 hr 0 min 18 sec) 
Heartbeat CPU  0 instructions:   11000002 cycles:    7725032 heartbeat IPC: 1.42408 cumulative IPC: 1.42394 (Simulation time: 0 hr 0 min 20 sec) 
Heartbeat CPU  0 instructions:   12000000 cycles:    8427158 heartbeat IPC: 1.42424 cumulative IPC: 1.42397 (Simulation time: 0 hr 0 min 21 sec) 
Heartbeat CPU  0 instructions:   13000000 cycles:    9129693 heartbeat IPC: 1.42342 cumulative IPC: 1.42393 (Simulation time: 0 hr 0 min 23 sec) 
Heartbeat CPU  0 instructions:   14000002 cycles:    9831947 heartbeat IPC: 1.42399 cumulative IPC: 1.42393 (Simulation time: 0 hr 0 min 25 sec) 
Heartbeat CPU  0 instructions:   15000002 cycles:   10533860 heartbeat IPC: 1.42468 cumulative IPC: 1.42398 (Simulation time: 0 hr 0 min 27 sec) 
Heartbeat CPU  0 instructions:   16000000 cycles:   11236387 heartbeat IPC: 1.42343 cumulative IPC: 1.42395 (Simulation time: 0 hr 0 min 29 sec) 
Heartbeat CPU  0 instructions:   17000000 cycles:   11938927 heartbeat IPC: 1.42341 cumulative IPC: 1.42391 (Simulation time: 0 hr 0 min 30 sec) 
Heartbeat CPU  0 instructions:   18000001 cycles:   12599488 heartbeat IPC: 1.51387 cumulative IPC: 1.42863 (Simulation time: 0 hr 0 min 32 sec) 
Heartbeat CPU  0 instructions:   19000000 cycles:   13233978 heartbeat IPC: 1.57607 cumulative IPC: 1.43570 (Simulation time: 0 hr 0 min 34 sec) 
Heartbeat CPU  0 instructions:   20000000 cycles:   13936513 heartbeat IPC: 1.42342 cumulative IPC: 1.43508 (Simulation time: 0 hr 0 min 35 sec) 
Heartbeat CPU  0 instructions:   21000000 cycles:   14638874 heartbeat IPC: 1.42377 cumulative IPC: 1.43454 (Simulation time: 0 hr 0 min 37 sec) 
Heartbeat CPU  0 instructions:   22000002 cycles:   15341165 heartbeat IPC: 1.42391 cumulative IPC: 1.43405 (Simulation time: 0 hr 0 min 39 sec) 
Heartbeat CPU  0 instructions:   23000001 cycles:   16043530 heartbeat IPC: 1.42376 cumulative IPC: 1.43360 (Simulation time: 0 hr 0 min 41 sec) 
Heartbeat CPU  0 instructions:   24000000 cycles:   16745624 heartbeat IPC: 1.42431 cumulative IPC: 1.43321 (Simulation time: 0 hr 0 min 43 sec) 
Heartbeat CPU  0 instructions:   25000001 cycles:   17447913 heartbeat IPC: 1.42392 cumulative IPC: 1.43284 (Simulation time: 0 hr 0 min 44 sec) 
Heartbeat CPU  0 instructions:   26000003 cycles:   18150528 heartbeat IPC: 1.42326 cumulative IPC: 1.43247 (Simulation time: 0 hr 0 min 46 sec) 
Heartbeat CPU  0 instructions:   27000003 cycles:   18852705 heartbeat IPC: 1.42414 cumulative IPC: 1.43216 (Simulation time: 0 hr 0 min 48 sec) 
Heartbeat CPU  0 instructions:   28000000 cycles:   19554834 heartbeat IPC: 1.42424 cumulative IPC: 1.43187 (Simulation time: 0 hr 0 min 50 sec) 
Heartbeat CPU  0 instructions:   29000000 cycles:   20257235 heartbeat IPC: 1.42369 cumulative IPC: 1.43159 (Simulation time: 0 hr 0 min 51 sec) 
Heartbeat CPU  0 instructions:   30000003 cycles:   20959570 heartbeat IPC: 1.42383 cumulative IPC: 1.43133 (Simulation time: 0 hr 0 min 53 sec) 
Heartbeat CPU  0 instructions:   31000003 cycles:   21661524 heartbeat IPC: 1.42459 cumulative IPC: 1.43111 (Simulation time: 0 hr 0 min 55 sec) 
Heartbeat CPU  0 instructions:   32000000 cycles:   22363588 heartbeat IPC: 1.42437 cumulative IPC: 1.43090 (Simulation time: 0 hr 0 min 57 sec) 
Heartbeat CPU  0 instructions:   33000001 cycles:   23066320 heartbeat IPC: 1.42302 cumulative IPC: 1.43066 (Simulation time: 0 hr 0 min 58 sec) 
Heartbeat CPU  0 instructions:   34000000 cycles:   23768426 heartbeat IPC: 1.42428 cumulative IPC: 1.43047 (Simulation time: 0 hr 1 min 0 sec) 
Heartbeat CPU  0 instructions:   35000001 cycles:   24470654 heartbeat IPC: 1.42404 cumulative IPC: 1.43028 (Simulation time: 0 hr 1 min 2 sec) 
Heartbeat CPU  0 instructions:   36000000 cycles:   25172903 heartbeat IPC: 1.42399 cumulative IPC: 1.43011 (Simulation time: 0 hr 1 min 4 sec) 
Heartbeat CPU  0 instructions:   37000000 cycles:   25875468 heartbeat IPC: 1.42336 cumulative IPC: 1.42993 (Simulation time: 0 hr 1 min 6 sec) 
Heartbeat CPU  0 instructions:   38000001 cycles:   26577659 heartbeat IPC: 1.42412 cumulative IPC: 1.42977 (Simulation time: 0 hr 1 min 7 sec) 
Heartbeat CPU  0 instructions:   39000000 cycles:   27279904 heartbeat IPC: 1.42400 cumulative IPC: 1.42962 (Simulation time: 0 hr 1 min 9 sec) 
Heartbeat CPU  0 instructions:   40000000 cycles:   27982132 heartbeat IPC: 1.42404 cumulative IPC: 1.42948 (Simulation time: 0 hr 1 min 11 sec) 
Heartbeat CPU  0 instructions:   41000000 cycles:   28586340 heartbeat IPC: 1.65506 cumulative IPC: 1.43425 (Simulation time: 0 hr 1 min 13 sec) 
Heartbeat CPU  0 instructions:   42000002 cycles:   29277597 heartbeat IPC: 1.44664 cumulative IPC: 1.43454 (Simulation time: 0 hr 1 min 14 sec) 
Heartbeat CPU  0 instructions:   43000002 cycles:   29979982 heartbeat IPC: 1.42372 cumulative IPC: 1.43429 (Simulation time: 0 hr 1 min 16 sec) 
Heartbeat CPU  0 instructions:   44000000 cycles:   30682400 heartbeat IPC: 1.42365 cumulative IPC: 1.43405 (Simulation time: 0 hr 1 min 18 sec) 
Heartbeat CPU  0 instructions:   45000003 cycles:   31384671 heartbeat IPC: 1.42396 cumulative IPC: 1.43382 (Simulation time: 0 hr 1 min 20 sec) 
Heartbeat CPU  0 instructions:   46000003 cycles:   32086855 heartbeat IPC: 1.42413 cumulative IPC: 1.43361 (Simulation time: 0 hr 1 min 21 sec) 
Heartbeat CPU  0 instructions:   47000000 cycles:   32789030 heartbeat IPC: 1.42414 cumulative IPC: 1.43341 (Simulation time: 0 hr 1 min 23 sec) 
Heartbeat CPU  0 instructions:   48000000 cycles:   33491630 heartbeat IPC: 1.42328 cumulative IPC: 1.43319 (Simulation time: 0 hr 1 min 25 sec) 
Heartbeat CPU  0 instructions:   49000000 cycles:   34193620 heartbeat IPC: 1.42452 cumulative IPC: 1.43302 (Simulation time: 0 hr 1 min 27 sec) 
Heartbeat CPU  0 instructions:   50000000 cycles:   34895925 heartbeat IPC: 1.42388 cumulative IPC: 1.43283 (Simulation time: 0 hr 1 min 28 sec) 
Heartbeat CPU  0 instructions:   51000000 cycles:   35598410 heartbeat IPC: 1.42352 cumulative IPC: 1.43265 (Simulation time: 0 hr 1 min 30 sec) 
Heartbeat CPU  0 instructions:   52000000 cycles:   36300572 heartbeat IPC: 1.42417 cumulative IPC: 1.43248 (Simulation time: 0 hr 1 min 32 sec) 
Heartbeat CPU  0 instructions:   53000000 cycles:   37002947 heartbeat IPC: 1.42374 cumulative IPC: 1.43232 (Simulation time: 0 hr 1 min 34 sec) 
Heartbeat CPU  0 instructions:   54000001 cycles:   37705015 heartbeat IPC: 1.42436 cumulative IPC: 1.43217 (Simulation time: 0 hr 1 min 36 sec) 
Heartbeat CPU  0 instructions:   55000001 cycles:   38407277 heartbeat IPC: 1.42397 cumulative IPC: 1.43202 (Simulation time: 0 hr 1 min 37 sec) 
Heartbeat CPU  0 instructions:   56000000 cycles:   39109704 heartbeat IPC: 1.42363 cumulative IPC: 1.43187 (Simulation time: 0 hr 1 min 39 sec) 
Heartbeat CPU  0 instructions:   57000000 cycles:   39812159 heartbeat IPC: 1.42358 cumulative IPC: 1.43172 (Simulation time: 0 hr 1 min 41 sec) 
Heartbeat CPU  0 instructions:   58000003 cycles:   40514458 heartbeat IPC: 1.42390 cumulative IPC: 1.43159 (Simulation time: 0 hr 1 min 43 sec) 
Heartbeat CPU  0 instructions:   59000000 cycles:   41216587 heartbeat IPC: 1.42424 cumulative IPC: 1.43146 (Simulation time: 0 hr 1 min 44 sec) 
Heartbeat CPU  0 instructions:   60000000 cycles:   41919001 heartbeat IPC: 1.42366 cumulative IPC: 1.43133 (Simulation time: 0 hr 1 min 46 sec) 
Heartbeat CPU  0 instructions:   61000000 cycles:   42621168 heartbeat IPC: 1.42416 cumulative IPC: 1.43121 (Simulation time: 0 hr 1 min 48 sec) 
Heartbeat CPU  0 instructions:   62000002 cycles:   43323401 heartbeat IPC: 1.42403 cumulative IPC: 1.43110 (Simulation time: 0 hr 1 min 50 sec) 
Heartbeat CPU  0 instructions:   63000000 cycles:   43970150 heartbeat IPC: 1.54619 cumulative IPC: 1.43279 (Simulation time: 0 hr 1 min 51 sec) 
Heartbeat CPU  0 instructions:   64000000 cycles:   44620754 heartbeat IPC: 1.53703 cumulative IPC: 1.43431 (Simulation time: 0 hr 1 min 53 sec) 
Heartbeat CPU  0 instructions:   65000000 cycles:   45322796 heartbeat IPC: 1.42442 cumulative IPC: 1.43416 (Simulation time: 0 hr 1 min 55 sec) 
Heartbeat CPU  0 instructions:   66000001 cycles:   46024866 heartbeat IPC: 1.42436 cumulative IPC: 1.43401 (Simulation time: 0 hr 1 min 57 sec) 
Heartbeat CPU  0 instructions:   67000002 cycles:   46726952 heartbeat IPC: 1.42433 cumulative IPC: 1.43386 (Simulation time: 0 hr 1 min 59 sec) 
Heartbeat CPU  0 instructions:   68000000 cycles:   47429327 heartbeat IPC: 1.42374 cumulative IPC: 1.43371 (Simulation time: 0 hr 2 min 0 sec) 
Heartbeat CPU  0 instructions:   69000000 cycles:   48131527 heartbeat IPC: 1.42410 cumulative IPC: 1.43357 (Simulation time: 0 hr 2 min 2 sec) 
Heartbeat CPU  0 instructions:   70000002 cycles:   48833641 heartbeat IPC: 1.42427 cumulative IPC: 1.43344 (Simulation time: 0 hr 2 min 4 sec) 
Heartbeat CPU  0 instructions:   71000003 cycles:   49536241 heartbeat IPC: 1.42329 cumulative IPC: 1.43329 (Simulation time: 0 hr 2 min 6 sec) 
Heartbeat CPU  0 instructions:   72000000 cycles:   50238291 heartbeat IPC: 1.42440 cumulative IPC: 1.43317 (Simulation time: 0 hr 2 min 7 sec) 
Heartbeat CPU  0 instructions:   73000001 cycles:   50940425 heartbeat IPC: 1.42423 cumulative IPC: 1.43305 (Simulation time: 0 hr 2 min 9 sec) 
Heartbeat CPU  0 instructions:   74000003 cycles:   51642763 heartbeat IPC: 1.42382 cumulative IPC: 1.43292 (Simulation time: 0 hr 2 min 11 sec) 
Heartbeat CPU  0 instructions:   75000002 cycles:   52345414 heartbeat IPC: 1.42318 cumulative IPC: 1.43279 (Simulation time: 0 hr 2 min 13 sec) 
Heartbeat CPU  0 instructions:   76000000 cycles:   53047588 heartbeat IPC: 1.42415 cumulative IPC: 1.43268 (Simulation time: 0 hr 2 min 14 sec) 
Heartbeat CPU  0 instructions:   77000003 cycles:   53750183 heartbeat IPC: 1.42330 cumulative IPC: 1.43255 (Simulation time: 0 hr 2 min 16 sec) 
Heartbeat CPU  0 instructions:   78000001 cycles:   54452668 heartbeat IPC: 1.42352 cumulative IPC: 1.43244 (Simulation time: 0 hr 2 min 18 sec) 
Heartbeat CPU  0 instructions:   79000001 cycles:   55154567 heartbeat IPC: 1.42471 cumulative IPC: 1.43234 (Simulation time: 0 hr 2 min 20 sec) 
Heartbeat CPU  0 instructions:   80000000 cycles:   55856577 heartbeat IPC: 1.42448 cumulative IPC: 1.43224 (Simulation time: 0 hr 2 min 22 sec) 
Heartbeat CPU  0 instructions:   81000002 cycles:   56558938 heartbeat IPC: 1.42377 cumulative IPC: 1.43213 (Simulation time: 0 hr 2 min 23 sec) 
Heartbeat CPU  0 instructions:   82000003 cycles:   57261173 heartbeat IPC: 1.42403 cumulative IPC: 1.43203 (Simulation time: 0 hr 2 min 25 sec) 
Heartbeat CPU  0 instructions:   83000001 cycles:   57963409 heartbeat IPC: 1.42402 cumulative IPC: 1.43194 (Simulation time: 0 hr 2 min 27 sec) 
Heartbeat CPU  0 instructions:   84000000 cycles:   58665607 heartbeat IPC: 1.42410 cumulative IPC: 1.43184 (Simulation time: 0 hr 2 min 29 sec) 
Heartbeat CPU  0 instructions:   85000000 cycles:   59354108 heartbeat IPC: 1.45243 cumulative IPC: 1.43208 (Simulation time: 0 hr 2 min 30 sec) 
Heartbeat CPU  0 instructions:   86000002 cycles:   59962338 heartbeat IPC: 1.64412 cumulative IPC: 1.43423 (Simulation time: 0 hr 2 min 32 sec) 
Heartbeat CPU  0 instructions:   87000002 cycles:   60664796 heartbeat IPC: 1.42357 cumulative IPC: 1.43411 (Simulation time: 0 hr 2 min 34 sec) 
Heartbeat CPU  0 instructions:   88000000 cycles:   61367429 heartbeat IPC: 1.42322 cumulative IPC: 1.43399 (Simulation time: 0 hr 2 min 36 sec) 
Heartbeat CPU  0 instructions:   89000001 cycles:   62069452 heartbeat IPC: 1.42446 cumulative IPC: 1.43388 (Simulation time: 0 hr 2 min 37 sec) 
Heartbeat CPU  0 instructions:   90000003 cycles:   62771784 heartbeat IPC: 1.42383 cumulative IPC: 1.43377 (Simulation time: 0 hr 2 min 39 sec) 
Heartbeat CPU  0 instructions:   91000003 cycles:   63474178 heartbeat IPC: 1.42370 cumulative IPC: 1.43365 (Simulation time: 0 hr 2 min 41 sec) 
Heartbeat CPU  0 instructions:   92000000 cycles:   64176410 heartbeat IPC: 1.42403 cumulative IPC: 1.43355 (Simulation time: 0 hr 2 min 43 sec) 
Heartbeat CPU  0 instructions:   93000002 cycles:   64878744 heartbeat IPC: 1.42383 cumulative IPC: 1.43344 (Simulation time: 0 hr 2 min 45 sec) 
Heartbeat CPU  0 instructions:   94000002 cycles:   65580737 heartbeat IPC: 1.42452 cumulative IPC: 1.43335 (Simulation time: 0 hr 2 min 46 sec) 
Heartbeat CPU  0 instructions:   95000003 cycles:   66282903 heartbeat IPC: 1.42417 cumulative IPC: 1.43325 (Simulation time: 0 hr 2 min 48 sec) 
Heartbeat CPU  0 instructions:   96000000 cycles:   66985201 heartbeat IPC: 1.42389 cumulative IPC: 1.43315 (Simulation time: 0 hr 2 min 50 sec) 
Heartbeat CPU  0 instructions:   97000000 cycles:   67687530 heartbeat IPC: 1.42383 cumulative IPC: 1.43306 (Simulation time: 0 hr 2 min 52 sec) 
Heartbeat CPU  0 instructions:   98000002 cycles:   68389701 heartbeat IPC: 1.42416 cumulative IPC: 1.43296 (Simulation time: 0 hr 2 min 53 sec) 
Heartbeat CPU  0 instructions:   99000003 cycles:   69091890 heartbeat IPC: 1.42412 cumulative IPC: 1.43287 (Simulation time: 0 hr 2 min 55 sec) 
Heartbeat CPU  0 instructions:  100000000 cycles:   69794241 heartbeat IPC: 1.42379 cumulative IPC: 1.43278 (Simulation time: 0 hr 2 min 57 sec) 

Warmup complete CPU  0 instructions:  100000001 cycles:   69794261 (Simulation time: 0 hr 2 min 57 sec) 

Heartbeat CPU  0 instructions:  101000000 cycles:   71718078 heartbeat IPC: 0.51979 cumulative IPC: 0.51980 (Simulation time: 0 hr 2 min 59 sec) 
Heartbeat CPU  0 instructions:  102000003 cycles:   73473777 heartbeat IPC: 0.56958 cumulative IPC: 0.54355 (Simulation time: 0 hr 3 min 1 sec) 
Heartbeat CPU  0 instructions:  103000003 cycles:   75339008 heartbeat IPC: 0.53613 cumulative IPC: 0.54105 (Simulation time: 0 hr 3 min 3 sec) 
Heartbeat CPU  0 instructions:  104000000 cycles:   77252315 heartbeat IPC: 0.52265 cumulative IPC: 0.53633 (Simulation time: 0 hr 3 min 5 sec) 
Heartbeat CPU  0 instructions:  105000002 cycles:   79087478 heartbeat IPC: 0.54491 cumulative IPC: 0.53803 (Simulation time: 0 hr 3 min 7 sec) 
Heartbeat CPU  0 instructions:  106000000 cycles:   80882951 heartbeat IPC: 0.55696 cumulative IPC: 0.54109 (Simulation time: 0 hr 3 min 9 sec) 
Heartbeat CPU  0 instructions:  107000003 cycles:   82792718 heartbeat IPC: 0.52363 cumulative IPC: 0.53853 (Simulation time: 0 hr 3 min 11 sec) 
Heartbeat CPU  0 instructions:  108000000 cycles:   93572840 heartbeat IPC: 0.09276 cumulative IPC: 0.33644 (Simulation time: 0 hr 3 min 13 sec) 
Heartbeat CPU  0 instructions:  109000003 cycles:  100367529 heartbeat IPC: 0.14717 cumulative IPC: 0.29437 (Simulation time: 0 hr 3 min 15 sec) 
Heartbeat CPU  0 instructions:  110000001 cycles:  102274825 heartbeat IPC: 0.52430 cumulative IPC: 0.30788 (Simulation time: 0 hr 3 min 18 sec) 
Heartbeat CPU  0 instructions:  111000000 cycles:  104189795 heartbeat IPC: 0.52220 cumulative IPC: 0.31981 (Simulation time: 0 hr 3 min 20 sec) 
Heartbeat CPU  0 instructions:  112000000 cycles:  105955322 heartbeat IPC: 0.56640 cumulative IPC: 0.33185 (Simulation time: 0 hr 3 min 22 sec) 
Heartbeat CPU  0 instructions:  113000000 cycles:  107823276 heartbeat IPC: 0.53535 cumulative IPC: 0.34184 (Simulation time: 0 hr 3 min 24 sec) 
Heartbeat CPU  0 instructions:  114000000 cycles:  109748668 heartbeat IPC: 0.51937 cumulative IPC: 0.35040 (Simulation time: 0 hr 3 min 26 sec) 
Heartbeat CPU  0 instructions:  115000001 cycles:  111581248 heartbeat IPC: 0.54568 cumulative IPC: 0.35896 (Simulation time: 0 hr 3 min 28 sec) 
Heartbeat CPU  0 instructions:  116000000 cycles:  113375625 heartbeat IPC: 0.55730 cumulative IPC: 0.36713 (Simulation time: 0 hr 3 min 30 sec) 
Heartbeat CPU  0 instructions:  117000003 cycles:  115292101 heartbeat IPC: 0.52179 cumulative IPC: 0.37364 (Simulation time: 0 hr 3 min 32 sec) 
Heartbeat CPU  0 instructions:  118000002 cycles:  117193716 heartbeat IPC: 0.52587 cumulative IPC: 0.37975 (Simulation time: 0 hr 3 min 34 sec) 
Heartbeat CPU  0 instructions:  119000002 cycles:  118937297 heartbeat IPC: 0.57353 cumulative IPC: 0.38663 (Simulation time: 0 hr 3 min 36 sec) 
Heartbeat CPU  0 instructions:  120000000 cycles:  120840590 heartbeat IPC: 0.52540 cumulative IPC: 0.39180 (Simulation time: 0 hr 3 min 38 sec) 
Heartbeat CPU  0 instructions:  121000003 cycles:  122754375 heartbeat IPC: 0.52253 cumulative IPC: 0.39652 (Simulation time: 0 hr 3 min 40 sec) 
Heartbeat CPU  0 instructions:  122000002 cycles:  124531870 heartbeat IPC: 0.56259 cumulative IPC: 0.40192 (Simulation time: 0 hr 3 min 42 sec) 
Heartbeat CPU  0 instructions:  123000002 cycles:  126383605 heartbeat IPC: 0.54003 cumulative IPC: 0.40644 (Simulation time: 0 hr 3 min 44 sec) 
Heartbeat CPU  0 instructions:  124000000 cycles:  128301312 heartbeat IPC: 0.52146 cumulative IPC: 0.41021 (Simulation time: 0 hr 3 min 46 sec) 
Heartbeat CPU  0 instructions:  125000000 cycles:  130157087 heartbeat IPC: 0.53886 cumulative IPC: 0.41416 (Simulation time: 0 hr 3 min 48 sec) 
Heartbeat CPU  0 instructions:  126000002 cycles:  131947390 heartbeat IPC: 0.55857 cumulative IPC: 0.41832 (Simulation time: 0 hr 3 min 50 sec) 
Heartbeat CPU  0 instructions:  127000002 cycles:  133981678 heartbeat IPC: 0.49157 cumulative IPC: 0.42064 (Simulation time: 0 hr 3 min 52 sec) 
Heartbeat CPU  0 instructions:  128000000 cycles:  135888294 heartbeat IPC: 0.52449 cumulative IPC: 0.42364 (Simulation time: 0 hr 3 min 54 sec) 
Heartbeat CPU  0 instructions:  129000001 cycles:  137629559 heartbeat IPC: 0.57430 cumulative IPC: 0.42751 (Simulation time: 0 hr 3 min 56 sec) 
Heartbeat CPU  0 instructions:  130000000 cycles:  143167463 heartbeat IPC: 0.18057 cumulative IPC: 0.40887 (Simulation time: 0 hr 3 min 58 sec) 
Heartbeat CPU  0 instructions:  131000003 cycles:  155322130 heartbeat IPC: 0.08227 cumulative IPC: 0.36245 (Simulation time: 0 hr 4 min 0 sec) 
Heartbeat CPU  0 instructions:  132000000 cycles:  157101193 heartbeat IPC: 0.56209 cumulative IPC: 0.36652 (Simulation time: 0 hr 4 min 2 sec) 
Heartbeat CPU  0 instructions:  133000000 cycles:  158953736 heartbeat IPC: 0.53980 cumulative IPC: 0.37012 (Simulation time: 0 hr 4 min 4 sec) 
Heartbeat CPU  0 instructions:  134000000 cycles:  160871867 heartbeat IPC: 0.52134 cumulative IPC: 0.37331 (Simulation time: 0 hr 4 min 6 sec) 
Heartbeat CPU  0 instructions:  135000000 cycles:  162724811 heartbeat IPC: 0.53968 cumulative IPC: 0.37663 (Simulation time: 0 hr 4 min 8 sec) 
Heartbeat CPU  0 instructions:  136000000 cycles:  164502598 heartbeat IPC: 0.56250 cumulative IPC: 0.38011 (Simulation time: 0 hr 4 min 10 sec) 
Heartbeat CPU  0 instructions:  137000002 cycles:  166420377 heartbeat IPC: 0.52144 cumulative IPC: 0.38292 (Simulation time: 0 hr 4 min 12 sec) 
Heartbeat CPU  0 instructions:  138000001 cycles:  168326974 heartbeat IPC: 0.52449 cumulative IPC: 0.38566 (Simulation time: 0 hr 4 min 14 sec) 
Heartbeat CPU  0 instructions:  139000001 cycles:  170068309 heartbeat IPC: 0.57427 cumulative IPC: 0.38893 (Simulation time: 0 hr 4 min 16 sec) 
Heartbeat CPU  0 instructions:  140000000 cycles:  171974311 heartbeat IPC: 0.52466 cumulative IPC: 0.39147 (Simulation time: 0 hr 4 min 18 sec) 
Heartbeat CPU  0 instructions:  141000000 cycles:  173891602 heartbeat IPC: 0.52157 cumulative IPC: 0.39386 (Simulation time: 0 hr 4 min 20 sec) 
Heartbeat CPU  0 instructions:  142000001 cycles:  175685612 heartbeat IPC: 0.55741 cumulative IPC: 0.39663 (Simulation time: 0 hr 4 min 22 sec) 
Heartbeat CPU  0 instructions:  143000001 cycles:  177520514 heartbeat IPC: 0.54499 cumulative IPC: 0.39916 (Simulation time: 0 hr 4 min 24 sec) 
Heartbeat CPU  0 instructions:  144000000 cycles:  179440271 heartbeat IPC: 0.52090 cumulative IPC: 0.40129 (Simulation time: 0 hr 4 min 26 sec) 
Heartbeat CPU  0 instructions:  145000000 cycles:  181312832 heartbeat IPC: 0.53403 cumulative IPC: 0.40352 (Simulation time: 0 hr 4 min 28 sec) 
Heartbeat CPU  0 instructions:  146000002 cycles:  183076600 heartbeat IPC: 0.56697 cumulative IPC: 0.40607 (Simulation time: 0 hr 4 min 30 sec) 
Heartbeat CPU  0 instructions:  147000003 cycles:  184990724 heartbeat IPC: 0.52243 cumulative IPC: 0.40800 (Simulation time: 0 hr 4 min 32 sec) 
Heartbeat CPU  0 instructions:  148000000 cycles:  186898653 heartbeat IPC: 0.52413 cumulative IPC: 0.40989 (Simulation time: 0 hr 4 min 34 sec) 
Heartbeat CPU  0 instructions:  149000002 cycles:  188647075 heartbeat IPC: 0.57195 cumulative IPC: 0.41227 (Simulation time: 0 hr 4 min 37 sec) 
Heartbeat CPU  0 instructions:  150000003 cycles:  190539619 heartbeat IPC: 0.52839 cumulative IPC: 0.41409 (Simulation time: 0 hr 4 min 39 sec) 
Heartbeat CPU  0 instructions:  151000003 cycles:  192452479 heartbeat IPC: 0.52278 cumulative IPC: 0.41579 (Simulation time: 0 hr 4 min 40 sec) 
Heartbeat CPU  0 instructions:  152000000 cycles:  194275721 heartbeat IPC: 0.54847 cumulative IPC: 0.41773 (Simulation time: 0 hr 4 min 43 sec) 
Heartbeat CPU  0 instructions:  153000003 cycles:  207145923 heartbeat IPC: 0.07770 cumulative IPC: 0.38587 (Simulation time: 0 hr 4 min 45 sec) 
Heartbeat CPU  0 instructions:  154000000 cycles:  212117790 heartbeat IPC: 0.20113 cumulative IPC: 0.37942 (Simulation time: 0 hr 4 min 47 sec) 
Heartbeat CPU  0 instructions:  155000000 cycles:  213989396 heartbeat IPC: 0.53430 cumulative IPC: 0.38143 (Simulation time: 0 hr 4 min 49 sec) 
Heartbeat CPU  0 instructions:  156000000 cycles:  215750032 heartbeat IPC: 0.56798 cumulative IPC: 0.38368 (Simulation time: 0 hr 4 min 51 sec) 
Heartbeat CPU  0 instructions:  157000001 cycles:  217664250 heartbeat IPC: 0.52241 cumulative IPC: 0.38547 (Simulation time: 0 hr 4 min 53 sec) 
Heartbeat CPU  0 instructions:  158000001 cycles:  219574429 heartbeat IPC: 0.52351 cumulative IPC: 0.38723 (Simulation time: 0 hr 4 min 55 sec) 
Heartbeat CPU  0 instructions:  159000000 cycles:  221320771 heartbeat IPC: 0.57262 cumulative IPC: 0.38937 (Simulation time: 0 hr 4 min 57 sec) 
Heartbeat CPU  0 instructions:  160000000 cycles:  223216369 heartbeat IPC: 0.52754 cumulative IPC: 0.39108 (Simulation time: 0 hr 4 min 59 sec) 
Heartbeat CPU  0 instructions:  161000003 cycles:  225135181 heartbeat IPC: 0.52116 cumulative IPC: 0.39268 (Simulation time: 0 hr 5 min 1 sec) 
Heartbeat CPU  0 instructions:  162000000 cycles:  226946506 heartbeat IPC: 0.55208 cumulative IPC: 0.39452 (Simulation time: 0 hr 5 min 3 sec) 
Heartbeat CPU  0 instructions:  163000003 cycles:  228767374 heartbeat IPC: 0.54919 cumulative IPC: 0.39629 (Simulation time: 0 hr 5 min 5 sec) 
Heartbeat CPU  0 instructions:  164000000 cycles:  230682036 heartbeat IPC: 0.52228 cumulative IPC: 0.39779 (Simulation time: 0 hr 5 min 7 sec) 
Heartbeat CPU  0 instructions:  165000000 cycles:  232578933 heartbeat IPC: 0.52718 cumulative IPC: 0.39930 (Simulation time: 0 hr 5 min 9 sec) 
Heartbeat CPU  0 instructions:  166000001 cycles:  234323297 heartbeat IPC: 0.57328 cumulative IPC: 0.40115 (Simulation time: 0 hr 5 min 11 sec) 
Heartbeat CPU  0 instructions:  167000000 cycles:  236235177 heartbeat IPC: 0.52304 cumulative IPC: 0.40255 (Simulation time: 0 hr 5 min 13 sec) 
Heartbeat CPU  0 instructions:  168000000 cycles:  238148788 heartbeat IPC: 0.52257 cumulative IPC: 0.40391 (Simulation time: 0 hr 5 min 15 sec) 
Heartbeat CPU  0 instructions:  169000001 cycles:  239905378 heartbeat IPC: 0.56929 cumulative IPC: 0.40562 (Simulation time: 0 hr 5 min 17 sec) 
Heartbeat CPU  0 instructions:  170000002 cycles:  241781621 heartbeat IPC: 0.53298 cumulative IPC: 0.40701 (Simulation time: 0 hr 5 min 19 sec) 
Heartbeat CPU  0 instructions:  171000001 cycles:  243701760 heartbeat IPC: 0.52080 cumulative IPC: 0.40826 (Simulation time: 0 hr 5 min 21 sec) 
Heartbeat CPU  0 instructions:  172000000 cycles:  245532260 heartbeat IPC: 0.54630 cumulative IPC: 0.40970 (Simulation time: 0 hr 5 min 23 sec) 
Heartbeat CPU  0 instructions:  173000000 cycles:  247334574 heartbeat IPC: 0.55484 cumulative IPC: 0.41117 (Simulation time: 0 hr 5 min 25 sec) 
Heartbeat CPU  0 instructions:  174000003 cycles:  249253254 heartbeat IPC: 0.52119 cumulative IPC: 0.41235 (Simulation time: 0 hr 5 min 27 sec) 
Heartbeat CPU  0 instructions:  175000000 cycles:  256463458 heartbeat IPC: 0.13869 cumulative IPC: 0.40178 (Simulation time: 0 hr 5 min 29 sec) 
Heartbeat CPU  0 instructions:  176000000 cycles:  266795453 heartbeat IPC: 0.09679 cumulative IPC: 0.38578 (Simulation time: 0 hr 5 min 32 sec) 
Heartbeat CPU  0 instructions:  177000001 cycles:  268778038 heartbeat IPC: 0.50439 cumulative IPC: 0.38697 (Simulation time: 0 hr 5 min 34 sec) 
Heartbeat CPU  0 instructions:  178000003 cycles:  270844240 heartbeat IPC: 0.48398 cumulative IPC: 0.38796 (Simulation time: 0 hr 5 min 36 sec) 
Heartbeat CPU  0 instructions:  179000002 cycles:  272769061 heartbeat IPC: 0.51953 cumulative IPC: 0.38921 (Simulation time: 0 hr 5 min 38 sec) 
Heartbeat CPU  0 instructions:  180000000 cycles:  274673236 heartbeat IPC: 0.52516 cumulative IPC: 0.39047 (Simulation time: 0 hr 5 min 40 sec) 
Heartbeat CPU  0 instructions:  181000003 cycles:  276605220 heartbeat IPC: 0.51760 cumulative IPC: 0.39166 (Simulation time: 0 hr 5 min 42 sec) 
Heartbeat CPU  0 instructions:  182000003 cycles:  278452582 heartbeat IPC: 0.54131 cumulative IPC: 0.39299 (Simulation time: 0 hr 5 min 44 sec) 
Heartbeat CPU  0 instructions:  183000000 cycles:  280282805 heartbeat IPC: 0.54638 cumulative IPC: 0.39432 (Simulation time: 0 hr 5 min 46 sec) 
Heartbeat CPU  0 instructions:  184000000 cycles:  282213468 heartbeat IPC: 0.51796 cumulative IPC: 0.39544 (Simulation time: 0 hr 5 min 48 sec) 
Heartbeat CPU  0 instructions:  185000002 cycles:  284133648 heartbeat IPC: 0.52079 cumulative IPC: 0.39657 (Simulation time: 0 hr 5 min 50 sec) 
Heartbeat CPU  0 instructions:  186000001 cycles:  285912813 heartbeat IPC: 0.56206 cumulative IPC: 0.39793 (Simulation time: 0 hr 5 min 52 sec) 
Heartbeat CPU  0 instructions:  187000000 cycles:  287831949 heartbeat IPC: 0.52107 cumulative IPC: 0.39901 (Simulation time: 0 hr 5 min 54 sec) 
Heartbeat CPU  0 instructions:  188000000 cycles:  289763513 heartbeat IPC: 0.51772 cumulative IPC: 0.40006 (Simulation time: 0 hr 5 min 56 sec) 
Heartbeat CPU  0 instructions:  189000000 cycles:  291554221 heartbeat IPC: 0.55844 cumulative IPC: 0.40133 (Simulation time: 0 hr 5 min 58 sec) 
Heartbeat CPU  0 instructions:  190000000 cycles:  293442200 heartbeat IPC: 0.52967 cumulative IPC: 0.40242 (Simulation time: 0 hr 6 min 0 sec) 
Heartbeat CPU  0 instructions:  191000000 cycles:  295375191 heartbeat IPC: 0.51733 cumulative IPC: 0.40340 (Simulation time: 0 hr 6 min 2 sec) 
Heartbeat CPU  0 instructions:  192000000 cycles:  297237391 heartbeat IPC: 0.53700 cumulative IPC: 0.40450 (Simulation time: 0 hr 6 min 4 sec) 
Heartbeat CPU  0 instructions:  193000001 cycles:  299053806 heartbeat IPC: 0.55054 cumulative IPC: 0.40565 (Simulation time: 0 hr 6 min 6 sec) 
Heartbeat CPU  0 instructions:  194000000 cycles:  300986968 heartbeat IPC: 0.51729 cumulative IPC: 0.40659 (Simulation time: 0 hr 6 min 8 sec) 
Heartbeat CPU  0 instructions:  195000002 cycles:  302906402 heartbeat IPC: 0.52099 cumulative IPC: 0.40753 (Simulation time: 0 hr 6 min 10 sec) 
Heartbeat CPU  0 instructions:  196000000 cycles:  304680743 heartbeat IPC: 0.56359 cumulative IPC: 0.40871 (Simulation time: 0 hr 6 min 12 sec) 
Heartbeat CPU  0 instructions:  197000000 cycles:  306709622 heartbeat IPC: 0.49288 cumulative IPC: 0.40943 (Simulation time: 0 hr 6 min 14 sec) 
Heartbeat CPU  0 instructions:  198000003 cycles:  321081606 heartbeat IPC: 0.06958 cumulative IPC: 0.38999 (Simulation time: 0 hr 6 min 16 sec) 
Heartbeat CPU  0 instructions:  199000001 cycles:  324212130 heartbeat IPC: 0.31943 cumulative IPC: 0.38912 (Simulation time: 0 hr 6 min 18 sec) 
Heartbeat CPU  0 instructions:  200000000 cycles:  326103384 heartbeat IPC: 0.52875 cumulative IPC: 0.39015 (Simulation time: 0 hr 6 min 20 sec) 
Finished CPU 0 instructions: 100000000 cycles: 256309151 cumulative IPC: 0.39015 (Simulation time: 0 hr 6 min 20 sec) 

ChampSim completed all CPUs

[ROI Statistics]
Core_0_instructions 100000000
Core_0_cycles 256309151
Core_0_IPC 0.39015

Core_0_branch_prediction_accuracy 99.16976
Core_0_branch_MPKI 0.01138
Core_0_average_ROB_occupancy_at_mispredict 253.38928

Core_0_L1D_total_access 50845555
Core_0_L1D_total_hit 50022857
Core_0_L1D_total_miss 822698
Core_0_L1D_loads 34156509
Core_0_L1D_load_hit 33498052
Core_0_L1D_load_miss 658457
Core_0_L1D_RFOs 16689046
Core_0_L1D_RFO_hit 16524805
Core_0_L1D_RFO_miss 164241
Core_0_L1D_prefetches 0
Core_0_L1D_prefetch_hit 0
Core_0_L1D_prefetch_miss 0
Core_0_L1D_writebacks 0
Core_0_L1D_writeback_hit 0
Core_0_L1D_writeback_miss 0
Core_0_L1D_prefetch_requested 0
Core_0_L1D_prefetch_issued 0
Core_0_L1D_prefetch_useful 0
Core_0_L1D_prefetch_useless 0
Core_0_L1D_prefetch_late 0
Core_0_L1D_average_miss_latency 108.75627

Core_0_L1I_total_access 26644103
Core_0_L1I_total_hit 26644103
Core_0_L1I_total_miss 0
Core_0_L1I_loads 26644103
Core_0_L1I_load_hit 26644103
Core_0_L1I_load_miss 0
Core_0_L1I_RFOs 0
Core_0_L1I_RFO_hit 0
Core_0_L1I_RFO_miss 0
Core_0_L1I_prefetches 0
Core_0_L1I_prefetch_hit 0
Core_0_L1I_prefetch_miss 0
Core_0_L1I_writebacks 0
Core_0_L1I_writeback_hit 0
Core_0_L1I_writeback_miss 0
Core_0_L1I_prefetch_requested 0
Core_0_L1I_prefetch_issued 0
Core_0_L1I_prefetch_useful 0
Core_0_L1I_prefetch_useless 0
Core_0_L1I_prefetch_late 0
Core_0_L1I_average_miss_latency -nan

Core_0_L2C_total_access 2682915
Core_0_L2C_total_hit 2139485
Core_0_L2C_total_miss 543430
Core_0_L2C_loads 658457
Core_0_L2C_load_hit 635072
Core_0_L2C_load_miss 23385
Core_0_L2C_RFOs 164241
Core_0_L2C_RFO_hit 79
Core_0_L2C_RFO_miss 164162
Core_0_L2C_prefetches 1689077
Core_0_L2C_prefetch_hit 1333384
Core_0_L2C_prefetch_miss 355693
Core_0_L2C_writebacks 171140
Core_0_L2C_writeback_hit 170950
Core_0_L2C_writeback_miss 190
Core_0_L2C_prefetch_requested 3511529
Core_0_L2C_prefetch_issued 3196118
Core_0_L2C_prefetch_useful 669812
Core_0_L2C_prefetch_useless 883
Core_0_L2C_prefetch_late 16
Core_0_L2C_average_miss_latency 165.63222

Core_0_LLC_total_access 1034796
Core_0_LLC_total_hit 452919
Core_0_LLC_total_miss 581877
Core_0_LLC_loads 23369
Core_0_LLC_load_hit 17344
Core_0_LLC_load_miss 6025
Core_0_LLC_RFOs 164162
Core_0_LLC_RFO_hit 52
Core_0_LLC_RFO_miss 164110
Core_0_LLC_prefetches 683384
Core_0_LLC_prefetch_hit 312771
Core_0_LLC_prefetch_miss 370613
Core_0_LLC_writebacks 163881
Core_0_LLC_writeback_hit 122752
Core_0_LLC_writeback_miss 41129
Core_0_LLC_prefetch_requested 718072
Core_0_LLC_prefetch_issued 706808
Core_0_LLC_prefetch_useful 54285
Core_0_LLC_prefetch_useless 650225
Core_0_LLC_prefetch_late 12
Core_0_LLC_average_miss_latency 219.48285

Core_0_major_page_fault 0
Core_0_minor_page_fault 8761

CPU 0 L2C PC-based stride prefetcher final stats
LLC Next Line Prefetcher Final Stats: none
Channel_0_RQ_row_buffer_hit 139958
Channel_0_RQ_row_buffer_miss 400789
Channel_0_WQ_row_buffer_hit 17821
Channel_0_WQ_row_buffer_miss 138038
Channel_0_WQ_full 0
Channel_0_dbus_congested 182687

avg_congested_cycle 10
