*************************************************
   ChampSim Multicore Out-of-Order Simulator
   Last compiled: Dec 22 2023 21:29:11
*************************************************

trace_0 ./test_trace/436.cactusADM-1804B.champsimtrace.xz
CPU 0 L2C next line prefetcher
warmup_instructions 100000000
simulation_instructions 100000000
champsim_seed 271

num_cpus 1
cpu_freq 4000
dram_io_freq 2400
page_size 4096
block_size 64
max_read_per_cycle 8
max_fill_per_cycle 1
dram_channels 1
dram_ranks 1
dram_banks 8
dram_rows 65536
dram_columns 128
dram_row_size 8
dram_size 4096
dram_pages 1048576

fetch_width 6
decode_width 6
exec_width 4
lq_width 2
sq_width 2
retire_width 4
scheduler_size 128
branch_mispredict_penalty 20
rob_size 256
lq_size 72
sq_size 56
num_instr_destinations_sparc 4
num_instr_destinations 2
num_instr_sources 4

itlb_set 16
itlb_way 8
itlb_rq_size 16
itlb_wq_size 16
itlb_pq_size 0
itlb_mshr_size 8
itlb_latency 1

dtlb_set 16
dtlb_way 4
dtlb_rq_size 16
dtlb_wq_size 16
dtlb_pq_size 0
dtlb_mshr_size 8
dtlb_latency 1

stlb_set 128
stlb_way 12
stlb_rq_size 32
stlb_wq_size 32
stlb_pq_size 0
stlb_mshr_size 16
stlb_latency 8

l1i_size 32
l1i_set 64
l1i_way 8
l1i_rq_size 64
l1i_wq_size 64
l1i_pq_size 8
l1i_mshr_size 8
l1i_latency 1

l1d_size 32
l1d_set 64
l1d_way 8
l1d_rq_size 64
l1d_wq_size 64
l1d_pq_size 8
l1d_mshr_size 16
l1d_latency 4

l2c_size 512
l2c_set 1024
l2c_way 8
l2c_rq_size 32
l2c_wq_size 32
l2c_pq_size 16
l2c_mshr_size 32
l2c_latency 10

llc_size 2048
llc_set 2048
llc_way 16
llc_rq_size 32
llc_wq_size 32
llc_pq_size 32
llc_mshr_size 64
llc_latency 20

dram_channel_width 8
dram_wq_size 64
dram_rq_size 64
tRP 15
tRCD 15
tCAS 12.5
dram_dbus_turn_around_time 30
dram_write_high_wm 56
dram_write_low_wm 48
min_dram_writes_per_switch 16
dram_mtps 2400
dram_dbus_return_time 13


Heartbeat CPU  0 instructions:    1000000 cycles:     702357 heartbeat IPC: 1.42378 cumulative IPC: 1.42378 (Simulation time: 0 hr 0 min 2 sec) 
Heartbeat CPU  0 instructions:    2000000 cycles:    1404560 heartbeat IPC: 1.42409 cumulative IPC: 1.42393 (Simulation time: 0 hr 0 min 3 sec) 
Heartbeat CPU  0 instructions:    3000000 cycles:    2106854 heartbeat IPC: 1.42391 cumulative IPC: 1.42392 (Simulation time: 0 hr 0 min 5 sec) 
Heartbeat CPU  0 instructions:    4000000 cycles:    2809169 heartbeat IPC: 1.42386 cumulative IPC: 1.42391 (Simulation time: 0 hr 0 min 7 sec) 
Heartbeat CPU  0 instructions:    5000000 cycles:    3511346 heartbeat IPC: 1.42414 cumulative IPC: 1.42396 (Simulation time: 0 hr 0 min 9 sec) 
Heartbeat CPU  0 instructions:    6000000 cycles:    4213665 heartbeat IPC: 1.42385 cumulative IPC: 1.42394 (Simulation time: 0 hr 0 min 10 sec) 
Heartbeat CPU  0 instructions:    7000001 cycles:    4916049 heartbeat IPC: 1.42372 cumulative IPC: 1.42391 (Simulation time: 0 hr 0 min 12 sec) 
Heartbeat CPU  0 instructions:    8000000 cycles:    5618162 heartbeat IPC: 1.42427 cumulative IPC: 1.42395 (Simulation time: 0 hr 0 min 14 sec) 
Heartbeat CPU  0 instructions:    9000001 cycles:    6320631 heartbeat IPC: 1.42355 cumulative IPC: 1.42391 (Simulation time: 0 hr 0 min 16 sec) 
Heartbeat CPU  0 instructions:   10000000 cycles:    7022804 heartbeat IPC: 1.42415 cumulative IPC: 1.42393 (Simulation time: 0 hr 0 min 18 sec) 
Heartbeat CPU  0 instructions:   11000002 cycles:    7724986 heartbeat IPC: 1.42414 cumulative IPC: 1.42395 (Simulation time: 0 hr 0 min 19 sec) 
Heartbeat CPU  0 instructions:   12000000 cycles:    8427112 heartbeat IPC: 1.42424 cumulative IPC: 1.42398 (Simulation time: 0 hr 0 min 21 sec) 
Heartbeat CPU  0 instructions:   13000000 cycles:    9129669 heartbeat IPC: 1.42337 cumulative IPC: 1.42393 (Simulation time: 0 hr 0 min 23 sec) 
Heartbeat CPU  0 instructions:   14000002 cycles:    9831916 heartbeat IPC: 1.42400 cumulative IPC: 1.42393 (Simulation time: 0 hr 0 min 25 sec) 
Heartbeat CPU  0 instructions:   15000002 cycles:   10533820 heartbeat IPC: 1.42470 cumulative IPC: 1.42399 (Simulation time: 0 hr 0 min 26 sec) 
Heartbeat CPU  0 instructions:   16000000 cycles:   11236340 heartbeat IPC: 1.42344 cumulative IPC: 1.42395 (Simulation time: 0 hr 0 min 28 sec) 
Heartbeat CPU  0 instructions:   17000000 cycles:   11938861 heartbeat IPC: 1.42344 cumulative IPC: 1.42392 (Simulation time: 0 hr 0 min 30 sec) 
Heartbeat CPU  0 instructions:   18000001 cycles:   12599032 heartbeat IPC: 1.51476 cumulative IPC: 1.42868 (Simulation time: 0 hr 0 min 31 sec) 
Heartbeat CPU  0 instructions:   19000000 cycles:   13232934 heartbeat IPC: 1.57753 cumulative IPC: 1.43581 (Simulation time: 0 hr 0 min 33 sec) 
Heartbeat CPU  0 instructions:   20000000 cycles:   13935439 heartbeat IPC: 1.42348 cumulative IPC: 1.43519 (Simulation time: 0 hr 0 min 35 sec) 
Heartbeat CPU  0 instructions:   21000000 cycles:   14637798 heartbeat IPC: 1.42377 cumulative IPC: 1.43464 (Simulation time: 0 hr 0 min 37 sec) 
Heartbeat CPU  0 instructions:   22000002 cycles:   15340093 heartbeat IPC: 1.42391 cumulative IPC: 1.43415 (Simulation time: 0 hr 0 min 39 sec) 
Heartbeat CPU  0 instructions:   23000001 cycles:   16042458 heartbeat IPC: 1.42376 cumulative IPC: 1.43370 (Simulation time: 0 hr 0 min 40 sec) 
Heartbeat CPU  0 instructions:   24000000 cycles:   16744559 heartbeat IPC: 1.42430 cumulative IPC: 1.43330 (Simulation time: 0 hr 0 min 42 sec) 
Heartbeat CPU  0 instructions:   25000001 cycles:   17446868 heartbeat IPC: 1.42388 cumulative IPC: 1.43292 (Simulation time: 0 hr 0 min 44 sec) 
Heartbeat CPU  0 instructions:   26000003 cycles:   18149463 heartbeat IPC: 1.42330 cumulative IPC: 1.43255 (Simulation time: 0 hr 0 min 46 sec) 
Heartbeat CPU  0 instructions:   27000003 cycles:   18851648 heartbeat IPC: 1.42413 cumulative IPC: 1.43224 (Simulation time: 0 hr 0 min 47 sec) 
Heartbeat CPU  0 instructions:   28000000 cycles:   19553770 heartbeat IPC: 1.42425 cumulative IPC: 1.43195 (Simulation time: 0 hr 0 min 49 sec) 
Heartbeat CPU  0 instructions:   29000000 cycles:   20256203 heartbeat IPC: 1.42362 cumulative IPC: 1.43166 (Simulation time: 0 hr 0 min 51 sec) 
Heartbeat CPU  0 instructions:   30000003 cycles:   20958551 heartbeat IPC: 1.42380 cumulative IPC: 1.43140 (Simulation time: 0 hr 0 min 53 sec) 
Heartbeat CPU  0 instructions:   31000003 cycles:   21660496 heartbeat IPC: 1.42461 cumulative IPC: 1.43118 (Simulation time: 0 hr 0 min 55 sec) 
Heartbeat CPU  0 instructions:   32000000 cycles:   22362561 heartbeat IPC: 1.42437 cumulative IPC: 1.43096 (Simulation time: 0 hr 0 min 56 sec) 
Heartbeat CPU  0 instructions:   33000001 cycles:   23065261 heartbeat IPC: 1.42308 cumulative IPC: 1.43072 (Simulation time: 0 hr 0 min 58 sec) 
Heartbeat CPU  0 instructions:   34000000 cycles:   23767366 heartbeat IPC: 1.42429 cumulative IPC: 1.43053 (Simulation time: 0 hr 1 min 0 sec) 
Heartbeat CPU  0 instructions:   35000001 cycles:   24469603 heartbeat IPC: 1.42402 cumulative IPC: 1.43035 (Simulation time: 0 hr 1 min 2 sec) 
Heartbeat CPU  0 instructions:   36000000 cycles:   25171844 heartbeat IPC: 1.42401 cumulative IPC: 1.43017 (Simulation time: 0 hr 1 min 3 sec) 
Heartbeat CPU  0 instructions:   37000000 cycles:   25874405 heartbeat IPC: 1.42336 cumulative IPC: 1.42998 (Simulation time: 0 hr 1 min 5 sec) 
Heartbeat CPU  0 instructions:   38000001 cycles:   26576580 heartbeat IPC: 1.42415 cumulative IPC: 1.42983 (Simulation time: 0 hr 1 min 7 sec) 
Heartbeat CPU  0 instructions:   39000000 cycles:   27278823 heartbeat IPC: 1.42401 cumulative IPC: 1.42968 (Simulation time: 0 hr 1 min 9 sec) 
Heartbeat CPU  0 instructions:   40000000 cycles:   27981087 heartbeat IPC: 1.42397 cumulative IPC: 1.42954 (Simulation time: 0 hr 1 min 11 sec) 
Heartbeat CPU  0 instructions:   41000000 cycles:   28584398 heartbeat IPC: 1.65752 cumulative IPC: 1.43435 (Simulation time: 0 hr 1 min 12 sec) 
Heartbeat CPU  0 instructions:   42000002 cycles:   29275534 heartbeat IPC: 1.44690 cumulative IPC: 1.43465 (Simulation time: 0 hr 1 min 14 sec) 
Heartbeat CPU  0 instructions:   43000002 cycles:   29977919 heartbeat IPC: 1.42372 cumulative IPC: 1.43439 (Simulation time: 0 hr 1 min 16 sec) 
Heartbeat CPU  0 instructions:   44000000 cycles:   30680330 heartbeat IPC: 1.42367 cumulative IPC: 1.43414 (Simulation time: 0 hr 1 min 18 sec) 
Heartbeat CPU  0 instructions:   45000003 cycles:   31382592 heartbeat IPC: 1.42397 cumulative IPC: 1.43392 (Simulation time: 0 hr 1 min 19 sec) 
Heartbeat CPU  0 instructions:   46000003 cycles:   32084778 heartbeat IPC: 1.42412 cumulative IPC: 1.43370 (Simulation time: 0 hr 1 min 21 sec) 
Heartbeat CPU  0 instructions:   47000000 cycles:   32786941 heartbeat IPC: 1.42417 cumulative IPC: 1.43350 (Simulation time: 0 hr 1 min 23 sec) 
Heartbeat CPU  0 instructions:   48000000 cycles:   33489527 heartbeat IPC: 1.42331 cumulative IPC: 1.43328 (Simulation time: 0 hr 1 min 25 sec) 
Heartbeat CPU  0 instructions:   49000000 cycles:   34191545 heartbeat IPC: 1.42446 cumulative IPC: 1.43310 (Simulation time: 0 hr 1 min 26 sec) 
Heartbeat CPU  0 instructions:   50000000 cycles:   34893847 heartbeat IPC: 1.42389 cumulative IPC: 1.43292 (Simulation time: 0 hr 1 min 28 sec) 
Heartbeat CPU  0 instructions:   51000000 cycles:   35596337 heartbeat IPC: 1.42351 cumulative IPC: 1.43273 (Simulation time: 0 hr 1 min 30 sec) 
Heartbeat CPU  0 instructions:   52000000 cycles:   36298516 heartbeat IPC: 1.42414 cumulative IPC: 1.43257 (Simulation time: 0 hr 1 min 32 sec) 
Heartbeat CPU  0 instructions:   53000000 cycles:   37000910 heartbeat IPC: 1.42370 cumulative IPC: 1.43240 (Simulation time: 0 hr 1 min 33 sec) 
Heartbeat CPU  0 instructions:   54000001 cycles:   37702967 heartbeat IPC: 1.42439 cumulative IPC: 1.43225 (Simulation time: 0 hr 1 min 35 sec) 
Heartbeat CPU  0 instructions:   55000001 cycles:   38405235 heartbeat IPC: 1.42396 cumulative IPC: 1.43210 (Simulation time: 0 hr 1 min 37 sec) 
Heartbeat CPU  0 instructions:   56000000 cycles:   39107702 heartbeat IPC: 1.42355 cumulative IPC: 1.43194 (Simulation time: 0 hr 1 min 39 sec) 
Heartbeat CPU  0 instructions:   57000000 cycles:   39810174 heartbeat IPC: 1.42354 cumulative IPC: 1.43179 (Simulation time: 0 hr 1 min 40 sec) 
Heartbeat CPU  0 instructions:   58000003 cycles:   40512470 heartbeat IPC: 1.42391 cumulative IPC: 1.43166 (Simulation time: 0 hr 1 min 42 sec) 
Heartbeat CPU  0 instructions:   59000000 cycles:   41214600 heartbeat IPC: 1.42423 cumulative IPC: 1.43153 (Simulation time: 0 hr 1 min 44 sec) 
Heartbeat CPU  0 instructions:   60000000 cycles:   41917012 heartbeat IPC: 1.42367 cumulative IPC: 1.43140 (Simulation time: 0 hr 1 min 46 sec) 
Heartbeat CPU  0 instructions:   61000000 cycles:   42619189 heartbeat IPC: 1.42414 cumulative IPC: 1.43128 (Simulation time: 0 hr 1 min 48 sec) 
Heartbeat CPU  0 instructions:   62000002 cycles:   43321449 heartbeat IPC: 1.42398 cumulative IPC: 1.43116 (Simulation time: 0 hr 1 min 49 sec) 
Heartbeat CPU  0 instructions:   63000000 cycles:   43967690 heartbeat IPC: 1.54741 cumulative IPC: 1.43287 (Simulation time: 0 hr 1 min 51 sec) 
Heartbeat CPU  0 instructions:   64000000 cycles:   44617761 heartbeat IPC: 1.53829 cumulative IPC: 1.43441 (Simulation time: 0 hr 1 min 53 sec) 
Heartbeat CPU  0 instructions:   65000000 cycles:   45319786 heartbeat IPC: 1.42445 cumulative IPC: 1.43425 (Simulation time: 0 hr 1 min 54 sec) 
Heartbeat CPU  0 instructions:   66000001 cycles:   46021856 heartbeat IPC: 1.42436 cumulative IPC: 1.43410 (Simulation time: 0 hr 1 min 56 sec) 
Heartbeat CPU  0 instructions:   67000002 cycles:   46723960 heartbeat IPC: 1.42429 cumulative IPC: 1.43395 (Simulation time: 0 hr 1 min 58 sec) 
Heartbeat CPU  0 instructions:   68000000 cycles:   47426342 heartbeat IPC: 1.42372 cumulative IPC: 1.43380 (Simulation time: 0 hr 2 min 0 sec) 
Heartbeat CPU  0 instructions:   69000000 cycles:   48128511 heartbeat IPC: 1.42416 cumulative IPC: 1.43366 (Simulation time: 0 hr 2 min 1 sec) 
Heartbeat CPU  0 instructions:   70000002 cycles:   48830612 heartbeat IPC: 1.42430 cumulative IPC: 1.43353 (Simulation time: 0 hr 2 min 3 sec) 
Heartbeat CPU  0 instructions:   71000003 cycles:   49533233 heartbeat IPC: 1.42324 cumulative IPC: 1.43338 (Simulation time: 0 hr 2 min 5 sec) 
Heartbeat CPU  0 instructions:   72000000 cycles:   50235287 heartbeat IPC: 1.42439 cumulative IPC: 1.43326 (Simulation time: 0 hr 2 min 7 sec) 
Heartbeat CPU  0 instructions:   73000001 cycles:   50937430 heartbeat IPC: 1.42421 cumulative IPC: 1.43313 (Simulation time: 0 hr 2 min 9 sec) 
Heartbeat CPU  0 instructions:   74000003 cycles:   51639732 heartbeat IPC: 1.42389 cumulative IPC: 1.43301 (Simulation time: 0 hr 2 min 10 sec) 
Heartbeat CPU  0 instructions:   75000002 cycles:   52342393 heartbeat IPC: 1.42316 cumulative IPC: 1.43287 (Simulation time: 0 hr 2 min 12 sec) 
Heartbeat CPU  0 instructions:   76000000 cycles:   53044587 heartbeat IPC: 1.42411 cumulative IPC: 1.43276 (Simulation time: 0 hr 2 min 14 sec) 
Heartbeat CPU  0 instructions:   77000003 cycles:   53747177 heartbeat IPC: 1.42331 cumulative IPC: 1.43263 (Simulation time: 0 hr 2 min 16 sec) 
Heartbeat CPU  0 instructions:   78000001 cycles:   54449664 heartbeat IPC: 1.42351 cumulative IPC: 1.43252 (Simulation time: 0 hr 2 min 17 sec) 
Heartbeat CPU  0 instructions:   79000001 cycles:   55151584 heartbeat IPC: 1.42466 cumulative IPC: 1.43242 (Simulation time: 0 hr 2 min 19 sec) 
Heartbeat CPU  0 instructions:   80000000 cycles:   55853621 heartbeat IPC: 1.42442 cumulative IPC: 1.43232 (Simulation time: 0 hr 2 min 21 sec) 
Heartbeat CPU  0 instructions:   81000002 cycles:   56555957 heartbeat IPC: 1.42382 cumulative IPC: 1.43221 (Simulation time: 0 hr 2 min 23 sec) 
Heartbeat CPU  0 instructions:   82000003 cycles:   57258188 heartbeat IPC: 1.42403 cumulative IPC: 1.43211 (Simulation time: 0 hr 2 min 24 sec) 
Heartbeat CPU  0 instructions:   83000001 cycles:   57960427 heartbeat IPC: 1.42401 cumulative IPC: 1.43201 (Simulation time: 0 hr 2 min 26 sec) 
Heartbeat CPU  0 instructions:   84000000 cycles:   58662650 heartbeat IPC: 1.42405 cumulative IPC: 1.43192 (Simulation time: 0 hr 2 min 28 sec) 
Heartbeat CPU  0 instructions:   85000000 cycles:   59351010 heartbeat IPC: 1.45273 cumulative IPC: 1.43216 (Simulation time: 0 hr 2 min 30 sec) 
Heartbeat CPU  0 instructions:   86000002 cycles:   59958351 heartbeat IPC: 1.64652 cumulative IPC: 1.43433 (Simulation time: 0 hr 2 min 31 sec) 
Heartbeat CPU  0 instructions:   87000002 cycles:   60660794 heartbeat IPC: 1.42360 cumulative IPC: 1.43420 (Simulation time: 0 hr 2 min 33 sec) 
Heartbeat CPU  0 instructions:   88000000 cycles:   61363419 heartbeat IPC: 1.42323 cumulative IPC: 1.43408 (Simulation time: 0 hr 2 min 35 sec) 
Heartbeat CPU  0 instructions:   89000001 cycles:   62065454 heartbeat IPC: 1.42443 cumulative IPC: 1.43397 (Simulation time: 0 hr 2 min 37 sec) 
Heartbeat CPU  0 instructions:   90000003 cycles:   62767769 heartbeat IPC: 1.42387 cumulative IPC: 1.43386 (Simulation time: 0 hr 2 min 38 sec) 
Heartbeat CPU  0 instructions:   91000003 cycles:   63470180 heartbeat IPC: 1.42367 cumulative IPC: 1.43374 (Simulation time: 0 hr 2 min 40 sec) 
Heartbeat CPU  0 instructions:   92000000 cycles:   64172380 heartbeat IPC: 1.42409 cumulative IPC: 1.43364 (Simulation time: 0 hr 2 min 42 sec) 
Heartbeat CPU  0 instructions:   93000002 cycles:   64874742 heartbeat IPC: 1.42377 cumulative IPC: 1.43353 (Simulation time: 0 hr 2 min 44 sec) 
Heartbeat CPU  0 instructions:   94000002 cycles:   65576765 heartbeat IPC: 1.42445 cumulative IPC: 1.43343 (Simulation time: 0 hr 2 min 45 sec) 
Heartbeat CPU  0 instructions:   95000003 cycles:   66278921 heartbeat IPC: 1.42419 cumulative IPC: 1.43334 (Simulation time: 0 hr 2 min 47 sec) 
Heartbeat CPU  0 instructions:   96000000 cycles:   66981176 heartbeat IPC: 1.42398 cumulative IPC: 1.43324 (Simulation time: 0 hr 2 min 49 sec) 
Heartbeat CPU  0 instructions:   97000000 cycles:   67683508 heartbeat IPC: 1.42383 cumulative IPC: 1.43314 (Simulation time: 0 hr 2 min 51 sec) 
Heartbeat CPU  0 instructions:   98000002 cycles:   68385693 heartbeat IPC: 1.42413 cumulative IPC: 1.43305 (Simulation time: 0 hr 2 min 52 sec) 
Heartbeat CPU  0 instructions:   99000003 cycles:   69087906 heartbeat IPC: 1.42407 cumulative IPC: 1.43296 (Simulation time: 0 hr 2 min 54 sec) 
Heartbeat CPU  0 instructions:  100000000 cycles:   69790276 heartbeat IPC: 1.42375 cumulative IPC: 1.43286 (Simulation time: 0 hr 2 min 56 sec) 

Warmup complete CPU  0 instructions:  100000001 cycles:   69790296 (Simulation time: 0 hr 2 min 56 sec) 

Heartbeat CPU  0 instructions:  101000000 cycles:   71713990 heartbeat IPC: 0.51983 cumulative IPC: 0.51983 (Simulation time: 0 hr 2 min 58 sec) 
Heartbeat CPU  0 instructions:  102000003 cycles:   73468751 heartbeat IPC: 0.56988 cumulative IPC: 0.54371 (Simulation time: 0 hr 3 min 0 sec) 
Heartbeat CPU  0 instructions:  103000003 cycles:   75332690 heartbeat IPC: 0.53650 cumulative IPC: 0.54128 (Simulation time: 0 hr 3 min 2 sec) 
Heartbeat CPU  0 instructions:  104000000 cycles:   77245565 heartbeat IPC: 0.52277 cumulative IPC: 0.53653 (Simulation time: 0 hr 3 min 4 sec) 
Heartbeat CPU  0 instructions:  105000002 cycles:   79080522 heartbeat IPC: 0.54497 cumulative IPC: 0.53820 (Simulation time: 0 hr 3 min 6 sec) 
Heartbeat CPU  0 instructions:  106000000 cycles:   80874871 heartbeat IPC: 0.55730 cumulative IPC: 0.54129 (Simulation time: 0 hr 3 min 8 sec) 
Heartbeat CPU  0 instructions:  107000003 cycles:   82783519 heartbeat IPC: 0.52393 cumulative IPC: 0.53874 (Simulation time: 0 hr 3 min 10 sec) 
Heartbeat CPU  0 instructions:  108000000 cycles:   93556293 heartbeat IPC: 0.09283 cumulative IPC: 0.33662 (Simulation time: 0 hr 3 min 12 sec) 
Heartbeat CPU  0 instructions:  109000003 cycles:  100365379 heartbeat IPC: 0.14686 cumulative IPC: 0.29436 (Simulation time: 0 hr 3 min 15 sec) 
Heartbeat CPU  0 instructions:  110000001 cycles:  102272571 heartbeat IPC: 0.52433 cumulative IPC: 0.30786 (Simulation time: 0 hr 3 min 17 sec) 
Heartbeat CPU  0 instructions:  111000000 cycles:  104187219 heartbeat IPC: 0.52229 cumulative IPC: 0.31980 (Simulation time: 0 hr 3 min 19 sec) 
Heartbeat CPU  0 instructions:  112000000 cycles:  105952476 heartbeat IPC: 0.56649 cumulative IPC: 0.33184 (Simulation time: 0 hr 3 min 21 sec) 
Heartbeat CPU  0 instructions:  113000000 cycles:  107819364 heartbeat IPC: 0.53565 cumulative IPC: 0.34184 (Simulation time: 0 hr 3 min 23 sec) 
Heartbeat CPU  0 instructions:  114000000 cycles:  109743936 heartbeat IPC: 0.51960 cumulative IPC: 0.35041 (Simulation time: 0 hr 3 min 25 sec) 
Heartbeat CPU  0 instructions:  115000001 cycles:  111577492 heartbeat IPC: 0.54539 cumulative IPC: 0.35896 (Simulation time: 0 hr 3 min 27 sec) 
Heartbeat CPU  0 instructions:  116000000 cycles:  113370835 heartbeat IPC: 0.55762 cumulative IPC: 0.36714 (Simulation time: 0 hr 3 min 29 sec) 
Heartbeat CPU  0 instructions:  117000003 cycles:  115287390 heartbeat IPC: 0.52177 cumulative IPC: 0.37365 (Simulation time: 0 hr 3 min 31 sec) 
Heartbeat CPU  0 instructions:  118000002 cycles:  117188597 heartbeat IPC: 0.52598 cumulative IPC: 0.37976 (Simulation time: 0 hr 3 min 33 sec) 
Heartbeat CPU  0 instructions:  119000002 cycles:  118932184 heartbeat IPC: 0.57353 cumulative IPC: 0.38664 (Simulation time: 0 hr 3 min 35 sec) 
Heartbeat CPU  0 instructions:  120000000 cycles:  120834505 heartbeat IPC: 0.52567 cumulative IPC: 0.39182 (Simulation time: 0 hr 3 min 37 sec) 
Heartbeat CPU  0 instructions:  121000003 cycles:  122747836 heartbeat IPC: 0.52265 cumulative IPC: 0.39654 (Simulation time: 0 hr 3 min 39 sec) 
Heartbeat CPU  0 instructions:  122000002 cycles:  124524943 heartbeat IPC: 0.56271 cumulative IPC: 0.40194 (Simulation time: 0 hr 3 min 41 sec) 
Heartbeat CPU  0 instructions:  123000002 cycles:  126375621 heartbeat IPC: 0.54034 cumulative IPC: 0.40647 (Simulation time: 0 hr 3 min 43 sec) 
Heartbeat CPU  0 instructions:  124000000 cycles:  128292739 heartbeat IPC: 0.52162 cumulative IPC: 0.41024 (Simulation time: 0 hr 3 min 45 sec) 
Heartbeat CPU  0 instructions:  125000000 cycles:  130148848 heartbeat IPC: 0.53876 cumulative IPC: 0.41419 (Simulation time: 0 hr 3 min 47 sec) 
Heartbeat CPU  0 instructions:  126000002 cycles:  131938483 heartbeat IPC: 0.55877 cumulative IPC: 0.41835 (Simulation time: 0 hr 3 min 49 sec) 
Heartbeat CPU  0 instructions:  127000002 cycles:  133972435 heartbeat IPC: 0.49165 cumulative IPC: 0.42068 (Simulation time: 0 hr 3 min 51 sec) 
Heartbeat CPU  0 instructions:  128000000 cycles:  135878552 heartbeat IPC: 0.52463 cumulative IPC: 0.42368 (Simulation time: 0 hr 3 min 53 sec) 
Heartbeat CPU  0 instructions:  129000001 cycles:  137619484 heartbeat IPC: 0.57441 cumulative IPC: 0.42754 (Simulation time: 0 hr 3 min 55 sec) 
Heartbeat CPU  0 instructions:  130000000 cycles:  143152988 heartbeat IPC: 0.18072 cumulative IPC: 0.40893 (Simulation time: 0 hr 3 min 57 sec) 
Heartbeat CPU  0 instructions:  131000003 cycles:  155313445 heartbeat IPC: 0.08223 cumulative IPC: 0.36247 (Simulation time: 0 hr 4 min 0 sec) 
Heartbeat CPU  0 instructions:  132000000 cycles:  157092439 heartbeat IPC: 0.56211 cumulative IPC: 0.36654 (Simulation time: 0 hr 4 min 2 sec) 
Heartbeat CPU  0 instructions:  133000000 cycles:  158944819 heartbeat IPC: 0.53985 cumulative IPC: 0.37014 (Simulation time: 0 hr 4 min 4 sec) 
Heartbeat CPU  0 instructions:  134000000 cycles:  160862836 heartbeat IPC: 0.52137 cumulative IPC: 0.37333 (Simulation time: 0 hr 4 min 6 sec) 
Heartbeat CPU  0 instructions:  135000000 cycles:  162715982 heartbeat IPC: 0.53962 cumulative IPC: 0.37665 (Simulation time: 0 hr 4 min 8 sec) 
Heartbeat CPU  0 instructions:  136000000 cycles:  164494252 heartbeat IPC: 0.56234 cumulative IPC: 0.38013 (Simulation time: 0 hr 4 min 10 sec) 
Heartbeat CPU  0 instructions:  137000002 cycles:  166411035 heartbeat IPC: 0.52171 cumulative IPC: 0.38294 (Simulation time: 0 hr 4 min 12 sec) 
Heartbeat CPU  0 instructions:  138000001 cycles:  168317384 heartbeat IPC: 0.52456 cumulative IPC: 0.38568 (Simulation time: 0 hr 4 min 14 sec) 
Heartbeat CPU  0 instructions:  139000001 cycles:  170058368 heartbeat IPC: 0.57439 cumulative IPC: 0.38896 (Simulation time: 0 hr 4 min 16 sec) 
Heartbeat CPU  0 instructions:  140000000 cycles:  171963975 heartbeat IPC: 0.52477 cumulative IPC: 0.39149 (Simulation time: 0 hr 4 min 18 sec) 
Heartbeat CPU  0 instructions:  141000000 cycles:  173880749 heartbeat IPC: 0.52171 cumulative IPC: 0.39389 (Simulation time: 0 hr 4 min 20 sec) 
Heartbeat CPU  0 instructions:  142000001 cycles:  175674060 heartbeat IPC: 0.55763 cumulative IPC: 0.39666 (Simulation time: 0 hr 4 min 22 sec) 
Heartbeat CPU  0 instructions:  143000001 cycles:  177508434 heartbeat IPC: 0.54515 cumulative IPC: 0.39919 (Simulation time: 0 hr 4 min 24 sec) 
Heartbeat CPU  0 instructions:  144000000 cycles:  179426621 heartbeat IPC: 0.52133 cumulative IPC: 0.40133 (Simulation time: 0 hr 4 min 26 sec) 
Heartbeat CPU  0 instructions:  145000000 cycles:  181298426 heartbeat IPC: 0.53424 cumulative IPC: 0.40356 (Simulation time: 0 hr 4 min 28 sec) 
Heartbeat CPU  0 instructions:  146000002 cycles:  183062313 heartbeat IPC: 0.56693 cumulative IPC: 0.40610 (Simulation time: 0 hr 4 min 30 sec) 
Heartbeat CPU  0 instructions:  147000003 cycles:  184975444 heartbeat IPC: 0.52270 cumulative IPC: 0.40804 (Simulation time: 0 hr 4 min 32 sec) 
Heartbeat CPU  0 instructions:  148000000 cycles:  186882736 heartbeat IPC: 0.52430 cumulative IPC: 0.40993 (Simulation time: 0 hr 4 min 34 sec) 
Heartbeat CPU  0 instructions:  149000002 cycles:  188630938 heartbeat IPC: 0.57202 cumulative IPC: 0.41232 (Simulation time: 0 hr 4 min 36 sec) 
Heartbeat CPU  0 instructions:  150000003 cycles:  190522809 heartbeat IPC: 0.52858 cumulative IPC: 0.41414 (Simulation time: 0 hr 4 min 38 sec) 
Heartbeat CPU  0 instructions:  151000003 cycles:  192434696 heartbeat IPC: 0.52304 cumulative IPC: 0.41584 (Simulation time: 0 hr 4 min 40 sec) 
Heartbeat CPU  0 instructions:  152000000 cycles:  194257951 heartbeat IPC: 0.54847 cumulative IPC: 0.41778 (Simulation time: 0 hr 4 min 42 sec) 
Heartbeat CPU  0 instructions:  153000003 cycles:  207121721 heartbeat IPC: 0.07774 cumulative IPC: 0.38593 (Simulation time: 0 hr 4 min 44 sec) 
Heartbeat CPU  0 instructions:  154000000 cycles:  212102130 heartbeat IPC: 0.20079 cumulative IPC: 0.37945 (Simulation time: 0 hr 4 min 46 sec) 
Heartbeat CPU  0 instructions:  155000000 cycles:  213973478 heartbeat IPC: 0.53437 cumulative IPC: 0.38146 (Simulation time: 0 hr 4 min 48 sec) 
Heartbeat CPU  0 instructions:  156000000 cycles:  215734566 heartbeat IPC: 0.56783 cumulative IPC: 0.38371 (Simulation time: 0 hr 4 min 50 sec) 
Heartbeat CPU  0 instructions:  157000001 cycles:  217647650 heartbeat IPC: 0.52272 cumulative IPC: 0.38551 (Simulation time: 0 hr 4 min 52 sec) 
Heartbeat CPU  0 instructions:  158000001 cycles:  219557822 heartbeat IPC: 0.52351 cumulative IPC: 0.38727 (Simulation time: 0 hr 4 min 54 sec) 
Heartbeat CPU  0 instructions:  159000000 cycles:  221304370 heartbeat IPC: 0.57256 cumulative IPC: 0.38940 (Simulation time: 0 hr 4 min 56 sec) 
Heartbeat CPU  0 instructions:  160000000 cycles:  223199418 heartbeat IPC: 0.52769 cumulative IPC: 0.39111 (Simulation time: 0 hr 4 min 58 sec) 
Heartbeat CPU  0 instructions:  161000003 cycles:  225118117 heartbeat IPC: 0.52119 cumulative IPC: 0.39272 (Simulation time: 0 hr 5 min 1 sec) 
Heartbeat CPU  0 instructions:  162000000 cycles:  226929880 heartbeat IPC: 0.55195 cumulative IPC: 0.39455 (Simulation time: 0 hr 5 min 3 sec) 
Heartbeat CPU  0 instructions:  163000003 cycles:  228749775 heartbeat IPC: 0.54948 cumulative IPC: 0.39633 (Simulation time: 0 hr 5 min 5 sec) 
Heartbeat CPU  0 instructions:  164000000 cycles:  230663625 heartbeat IPC: 0.52251 cumulative IPC: 0.39783 (Simulation time: 0 hr 5 min 7 sec) 
Heartbeat CPU  0 instructions:  165000000 cycles:  232560095 heartbeat IPC: 0.52730 cumulative IPC: 0.39934 (Simulation time: 0 hr 5 min 9 sec) 
Heartbeat CPU  0 instructions:  166000001 cycles:  234304885 heartbeat IPC: 0.57314 cumulative IPC: 0.40118 (Simulation time: 0 hr 5 min 11 sec) 
Heartbeat CPU  0 instructions:  167000000 cycles:  236215296 heartbeat IPC: 0.52345 cumulative IPC: 0.40258 (Simulation time: 0 hr 5 min 13 sec) 
Heartbeat CPU  0 instructions:  168000000 cycles:  238127774 heartbeat IPC: 0.52288 cumulative IPC: 0.40395 (Simulation time: 0 hr 5 min 15 sec) 
Heartbeat CPU  0 instructions:  169000001 cycles:  239884089 heartbeat IPC: 0.56937 cumulative IPC: 0.40566 (Simulation time: 0 hr 5 min 17 sec) 
Heartbeat CPU  0 instructions:  170000002 cycles:  241760007 heartbeat IPC: 0.53307 cumulative IPC: 0.40705 (Simulation time: 0 hr 5 min 19 sec) 
Heartbeat CPU  0 instructions:  171000001 cycles:  243678884 heartbeat IPC: 0.52114 cumulative IPC: 0.40831 (Simulation time: 0 hr 5 min 21 sec) 
Heartbeat CPU  0 instructions:  172000000 cycles:  245509904 heartbeat IPC: 0.54614 cumulative IPC: 0.40974 (Simulation time: 0 hr 5 min 23 sec) 
Heartbeat CPU  0 instructions:  173000000 cycles:  247311601 heartbeat IPC: 0.55503 cumulative IPC: 0.41122 (Simulation time: 0 hr 5 min 25 sec) 
Heartbeat CPU  0 instructions:  174000003 cycles:  249228748 heartbeat IPC: 0.52161 cumulative IPC: 0.41240 (Simulation time: 0 hr 5 min 27 sec) 
Heartbeat CPU  0 instructions:  175000000 cycles:  256434570 heartbeat IPC: 0.13878 cumulative IPC: 0.40183 (Simulation time: 0 hr 5 min 29 sec) 
Heartbeat CPU  0 instructions:  176000000 cycles:  266776181 heartbeat IPC: 0.09670 cumulative IPC: 0.38581 (Simulation time: 0 hr 5 min 31 sec) 
Heartbeat CPU  0 instructions:  177000001 cycles:  268759426 heartbeat IPC: 0.50422 cumulative IPC: 0.38699 (Simulation time: 0 hr 5 min 33 sec) 
Heartbeat CPU  0 instructions:  178000003 cycles:  270825070 heartbeat IPC: 0.48411 cumulative IPC: 0.38799 (Simulation time: 0 hr 5 min 35 sec) 
Heartbeat CPU  0 instructions:  179000002 cycles:  272749511 heartbeat IPC: 0.51963 cumulative IPC: 0.38924 (Simulation time: 0 hr 5 min 37 sec) 
Heartbeat CPU  0 instructions:  180000000 cycles:  274654091 heartbeat IPC: 0.52505 cumulative IPC: 0.39050 (Simulation time: 0 hr 5 min 39 sec) 
Heartbeat CPU  0 instructions:  181000003 cycles:  276586133 heartbeat IPC: 0.51759 cumulative IPC: 0.39169 (Simulation time: 0 hr 5 min 41 sec) 
Heartbeat CPU  0 instructions:  182000003 cycles:  278432921 heartbeat IPC: 0.54148 cumulative IPC: 0.39302 (Simulation time: 0 hr 5 min 43 sec) 
Heartbeat CPU  0 instructions:  183000000 cycles:  280262830 heartbeat IPC: 0.54647 cumulative IPC: 0.39435 (Simulation time: 0 hr 5 min 45 sec) 
Heartbeat CPU  0 instructions:  184000000 cycles:  282192441 heartbeat IPC: 0.51824 cumulative IPC: 0.39548 (Simulation time: 0 hr 5 min 47 sec) 
Heartbeat CPU  0 instructions:  185000002 cycles:  284111583 heartbeat IPC: 0.52107 cumulative IPC: 0.39660 (Simulation time: 0 hr 5 min 49 sec) 
Heartbeat CPU  0 instructions:  186000001 cycles:  285890600 heartbeat IPC: 0.56211 cumulative IPC: 0.39796 (Simulation time: 0 hr 5 min 51 sec) 
Heartbeat CPU  0 instructions:  187000000 cycles:  287808520 heartbeat IPC: 0.52140 cumulative IPC: 0.39905 (Simulation time: 0 hr 5 min 53 sec) 
Heartbeat CPU  0 instructions:  188000000 cycles:  289738777 heartbeat IPC: 0.51807 cumulative IPC: 0.40009 (Simulation time: 0 hr 5 min 55 sec) 
Heartbeat CPU  0 instructions:  189000000 cycles:  291528822 heartbeat IPC: 0.55865 cumulative IPC: 0.40137 (Simulation time: 0 hr 5 min 57 sec) 
Heartbeat CPU  0 instructions:  190000000 cycles:  293416540 heartbeat IPC: 0.52974 cumulative IPC: 0.40246 (Simulation time: 0 hr 5 min 59 sec) 
Heartbeat CPU  0 instructions:  191000000 cycles:  295348583 heartbeat IPC: 0.51759 cumulative IPC: 0.40344 (Simulation time: 0 hr 6 min 1 sec) 
Heartbeat CPU  0 instructions:  192000000 cycles:  297210496 heartbeat IPC: 0.53708 cumulative IPC: 0.40454 (Simulation time: 0 hr 6 min 3 sec) 
Heartbeat CPU  0 instructions:  193000001 cycles:  299025746 heartbeat IPC: 0.55089 cumulative IPC: 0.40570 (Simulation time: 0 hr 6 min 5 sec) 
Heartbeat CPU  0 instructions:  194000000 cycles:  300958730 heartbeat IPC: 0.51733 cumulative IPC: 0.40663 (Simulation time: 0 hr 6 min 7 sec) 
Heartbeat CPU  0 instructions:  195000002 cycles:  302877224 heartbeat IPC: 0.52124 cumulative IPC: 0.40757 (Simulation time: 0 hr 6 min 9 sec) 
Heartbeat CPU  0 instructions:  196000000 cycles:  304651637 heartbeat IPC: 0.56357 cumulative IPC: 0.40875 (Simulation time: 0 hr 6 min 11 sec) 
Heartbeat CPU  0 instructions:  197000000 cycles:  306680632 heartbeat IPC: 0.49285 cumulative IPC: 0.40947 (Simulation time: 0 hr 6 min 13 sec) 
Heartbeat CPU  0 instructions:  198000003 cycles:  321045924 heartbeat IPC: 0.06961 cumulative IPC: 0.39004 (Simulation time: 0 hr 6 min 16 sec) 
Heartbeat CPU  0 instructions:  199000001 cycles:  324180091 heartbeat IPC: 0.31906 cumulative IPC: 0.38917 (Simulation time: 0 hr 6 min 18 sec) 
Heartbeat CPU  0 instructions:  200000000 cycles:  326070975 heartbeat IPC: 0.52885 cumulative IPC: 0.39020 (Simulation time: 0 hr 6 min 20 sec) 
Finished CPU 0 instructions: 100000000 cycles: 256280707 cumulative IPC: 0.39020 (Simulation time: 0 hr 6 min 20 sec) 

ChampSim completed all CPUs

[ROI Statistics]
Core_0_instructions 100000000
Core_0_cycles 256280707
Core_0_IPC 0.39020

Core_0_branch_prediction_accuracy 99.16976
Core_0_branch_MPKI 0.01138
Core_0_average_ROB_occupancy_at_mispredict 253.39104

Core_0_L1D_total_access 50845146
Core_0_L1D_total_hit 50022440
Core_0_L1D_total_miss 822706
Core_0_L1D_loads 34151638
Core_0_L1D_load_hit 33493173
Core_0_L1D_load_miss 658465
Core_0_L1D_RFOs 16693508
Core_0_L1D_RFO_hit 16529267
Core_0_L1D_RFO_miss 164241
Core_0_L1D_prefetches 0
Core_0_L1D_prefetch_hit 0
Core_0_L1D_prefetch_miss 0
Core_0_L1D_writebacks 0
Core_0_L1D_writeback_hit 0
Core_0_L1D_writeback_miss 0
Core_0_L1D_prefetch_requested 0
Core_0_L1D_prefetch_issued 0
Core_0_L1D_prefetch_useful 0
Core_0_L1D_prefetch_useless 0
Core_0_L1D_prefetch_late 0
Core_0_L1D_average_miss_latency 107.61174

Core_0_L1I_total_access 26634066
Core_0_L1I_total_hit 26634066
Core_0_L1I_total_miss 0
Core_0_L1I_loads 26634066
Core_0_L1I_load_hit 26634066
Core_0_L1I_load_miss 0
Core_0_L1I_RFOs 0
Core_0_L1I_RFO_hit 0
Core_0_L1I_RFO_miss 0
Core_0_L1I_prefetches 0
Core_0_L1I_prefetch_hit 0
Core_0_L1I_prefetch_miss 0
Core_0_L1I_writebacks 0
Core_0_L1I_writeback_hit 0
Core_0_L1I_writeback_miss 0
Core_0_L1I_prefetch_requested 0
Core_0_L1I_prefetch_issued 0
Core_0_L1I_prefetch_useful 0
Core_0_L1I_prefetch_useless 0
Core_0_L1I_prefetch_late 0
Core_0_L1I_average_miss_latency -nan

Core_0_L2C_total_access 1640756
Core_0_L2C_total_hit 1097738
Core_0_L2C_total_miss 543018
Core_0_L2C_loads 658464
Core_0_L2C_load_hit 651312
Core_0_L2C_load_miss 7152
Core_0_L2C_RFOs 164241
Core_0_L2C_RFO_hit 85
Core_0_L2C_RFO_miss 164156
Core_0_L2C_prefetches 646917
Core_0_L2C_prefetch_hit 275358
Core_0_L2C_prefetch_miss 371559
Core_0_L2C_writebacks 171134
Core_0_L2C_writeback_hit 170983
Core_0_L2C_writeback_miss 151
Core_0_L2C_prefetch_requested 1299053
Core_0_L2C_prefetch_issued 1277839
Core_0_L2C_prefetch_useful 723511
Core_0_L2C_prefetch_useless 395
Core_0_L2C_prefetch_late 818
Core_0_L2C_average_miss_latency 304.56746

Core_0_LLC_total_access 706674
Core_0_LLC_total_hit 163625
Core_0_LLC_total_miss 543049
Core_0_LLC_loads 6373
Core_0_LLC_load_hit 0
Core_0_LLC_load_miss 6373
Core_0_LLC_RFOs 164156
Core_0_LLC_RFO_hit 0
Core_0_LLC_RFO_miss 164156
Core_0_LLC_prefetches 372338
Core_0_LLC_prefetch_hit 0
Core_0_LLC_prefetch_miss 372338
Core_0_LLC_writebacks 163807
Core_0_LLC_writeback_hit 163625
Core_0_LLC_writeback_miss 182
Core_0_LLC_prefetch_requested 0
Core_0_LLC_prefetch_issued 0
Core_0_LLC_prefetch_useful 0
Core_0_LLC_prefetch_useless 706402
Core_0_LLC_prefetch_late 0
Core_0_LLC_average_miss_latency 238.11609

Core_0_major_page_fault 0
Core_0_minor_page_fault 8761

CPU 0 L2C next line prefetcher final stats
Channel_0_RQ_row_buffer_hit 136120
Channel_0_RQ_row_buffer_miss 406747
Channel_0_WQ_row_buffer_hit 24736
Channel_0_WQ_row_buffer_miss 130788
Channel_0_WQ_full 0
Channel_0_dbus_congested 174080

avg_congested_cycle 10
