*************************************************
   ChampSim Multicore Out-of-Order Simulator
   Last compiled: Dec 22 2023 22:08:39
*************************************************

trace_0 ./test_trace/436.cactusADM-1804B.champsimtrace.xz
CPU 0 L1D next line prefetcher
Initialize SRRIP state
warmup_instructions 100000000
simulation_instructions 100000000
champsim_seed 271

num_cpus 1
cpu_freq 4000
dram_io_freq 2400
page_size 4096
block_size 64
max_read_per_cycle 8
max_fill_per_cycle 1
dram_channels 1
dram_ranks 1
dram_banks 8
dram_rows 65536
dram_columns 128
dram_row_size 8
dram_size 4096
dram_pages 1048576

fetch_width 6
decode_width 6
exec_width 4
lq_width 2
sq_width 2
retire_width 4
scheduler_size 128
branch_mispredict_penalty 20
rob_size 256
lq_size 72
sq_size 56
num_instr_destinations_sparc 4
num_instr_destinations 2
num_instr_sources 4

itlb_set 16
itlb_way 8
itlb_rq_size 16
itlb_wq_size 16
itlb_pq_size 0
itlb_mshr_size 8
itlb_latency 1

dtlb_set 16
dtlb_way 4
dtlb_rq_size 16
dtlb_wq_size 16
dtlb_pq_size 0
dtlb_mshr_size 8
dtlb_latency 1

stlb_set 128
stlb_way 12
stlb_rq_size 32
stlb_wq_size 32
stlb_pq_size 0
stlb_mshr_size 16
stlb_latency 8

l1i_size 32
l1i_set 64
l1i_way 8
l1i_rq_size 64
l1i_wq_size 64
l1i_pq_size 8
l1i_mshr_size 8
l1i_latency 1

l1d_size 32
l1d_set 64
l1d_way 8
l1d_rq_size 64
l1d_wq_size 64
l1d_pq_size 8
l1d_mshr_size 16
l1d_latency 4

l2c_size 512
l2c_set 1024
l2c_way 8
l2c_rq_size 32
l2c_wq_size 32
l2c_pq_size 16
l2c_mshr_size 32
l2c_latency 10

llc_size 2048
llc_set 2048
llc_way 16
llc_rq_size 32
llc_wq_size 32
llc_pq_size 32
llc_mshr_size 64
llc_latency 20

dram_channel_width 8
dram_wq_size 64
dram_rq_size 64
tRP 15
tRCD 15
tCAS 12.5
dram_dbus_turn_around_time 30
dram_write_high_wm 56
dram_write_low_wm 48
min_dram_writes_per_switch 16
dram_mtps 2400
dram_dbus_return_time 13


Heartbeat CPU  0 instructions:    1000000 cycles:     702169 heartbeat IPC: 1.42416 cumulative IPC: 1.42416 (Simulation time: 0 hr 0 min 2 sec) 
Heartbeat CPU  0 instructions:    2000000 cycles:    1404110 heartbeat IPC: 1.42462 cumulative IPC: 1.42439 (Simulation time: 0 hr 0 min 4 sec) 
Heartbeat CPU  0 instructions:    3000000 cycles:    2106264 heartbeat IPC: 1.42419 cumulative IPC: 1.42432 (Simulation time: 0 hr 0 min 6 sec) 
Heartbeat CPU  0 instructions:    4000000 cycles:    2808416 heartbeat IPC: 1.42419 cumulative IPC: 1.42429 (Simulation time: 0 hr 0 min 8 sec) 
Heartbeat CPU  0 instructions:    5000000 cycles:    3510330 heartbeat IPC: 1.42468 cumulative IPC: 1.42437 (Simulation time: 0 hr 0 min 9 sec) 
Heartbeat CPU  0 instructions:    6000000 cycles:    4212453 heartbeat IPC: 1.42425 cumulative IPC: 1.42435 (Simulation time: 0 hr 0 min 11 sec) 
Heartbeat CPU  0 instructions:    7000001 cycles:    4914710 heartbeat IPC: 1.42398 cumulative IPC: 1.42430 (Simulation time: 0 hr 0 min 13 sec) 
Heartbeat CPU  0 instructions:    8000000 cycles:    5616540 heartbeat IPC: 1.42485 cumulative IPC: 1.42436 (Simulation time: 0 hr 0 min 15 sec) 
Heartbeat CPU  0 instructions:    9000001 cycles:    6318774 heartbeat IPC: 1.42403 cumulative IPC: 1.42433 (Simulation time: 0 hr 0 min 17 sec) 
Heartbeat CPU  0 instructions:   10000000 cycles:    7020818 heartbeat IPC: 1.42441 cumulative IPC: 1.42434 (Simulation time: 0 hr 0 min 19 sec) 
Heartbeat CPU  0 instructions:   11000002 cycles:    7722797 heartbeat IPC: 1.42455 cumulative IPC: 1.42435 (Simulation time: 0 hr 0 min 21 sec) 
Heartbeat CPU  0 instructions:   12000000 cycles:    8424735 heartbeat IPC: 1.42462 cumulative IPC: 1.42438 (Simulation time: 0 hr 0 min 23 sec) 
Heartbeat CPU  0 instructions:   13000000 cycles:    9127079 heartbeat IPC: 1.42380 cumulative IPC: 1.42433 (Simulation time: 0 hr 0 min 24 sec) 
Heartbeat CPU  0 instructions:   14000002 cycles:    9829155 heartbeat IPC: 1.42435 cumulative IPC: 1.42433 (Simulation time: 0 hr 0 min 26 sec) 
Heartbeat CPU  0 instructions:   15000002 cycles:   10530862 heartbeat IPC: 1.42510 cumulative IPC: 1.42439 (Simulation time: 0 hr 0 min 28 sec) 
Heartbeat CPU  0 instructions:   16000000 cycles:   11233266 heartbeat IPC: 1.42368 cumulative IPC: 1.42434 (Simulation time: 0 hr 0 min 30 sec) 
Heartbeat CPU  0 instructions:   17000000 cycles:   11935599 heartbeat IPC: 1.42383 cumulative IPC: 1.42431 (Simulation time: 0 hr 0 min 32 sec) 
Heartbeat CPU  0 instructions:   18000001 cycles:   12594637 heartbeat IPC: 1.51736 cumulative IPC: 1.42918 (Simulation time: 0 hr 0 min 34 sec) 
Heartbeat CPU  0 instructions:   19000000 cycles:   13226878 heartbeat IPC: 1.58167 cumulative IPC: 1.43647 (Simulation time: 0 hr 0 min 36 sec) 
Heartbeat CPU  0 instructions:   20000000 cycles:   13929156 heartbeat IPC: 1.42394 cumulative IPC: 1.43584 (Simulation time: 0 hr 0 min 38 sec) 
Heartbeat CPU  0 instructions:   21000000 cycles:   14631337 heartbeat IPC: 1.42413 cumulative IPC: 1.43528 (Simulation time: 0 hr 0 min 39 sec) 
Heartbeat CPU  0 instructions:   22000002 cycles:   15333377 heartbeat IPC: 1.42442 cumulative IPC: 1.43478 (Simulation time: 0 hr 0 min 41 sec) 
Heartbeat CPU  0 instructions:   23000001 cycles:   16035524 heartbeat IPC: 1.42420 cumulative IPC: 1.43432 (Simulation time: 0 hr 0 min 43 sec) 
Heartbeat CPU  0 instructions:   24000000 cycles:   16737393 heartbeat IPC: 1.42477 cumulative IPC: 1.43392 (Simulation time: 0 hr 0 min 45 sec) 
Heartbeat CPU  0 instructions:   25000001 cycles:   17439514 heartbeat IPC: 1.42426 cumulative IPC: 1.43353 (Simulation time: 0 hr 0 min 47 sec) 
Heartbeat CPU  0 instructions:   26000003 cycles:   18141842 heartbeat IPC: 1.42384 cumulative IPC: 1.43315 (Simulation time: 0 hr 0 min 49 sec) 
Heartbeat CPU  0 instructions:   27000003 cycles:   18843810 heartbeat IPC: 1.42457 cumulative IPC: 1.43283 (Simulation time: 0 hr 0 min 51 sec) 
Heartbeat CPU  0 instructions:   28000000 cycles:   19545768 heartbeat IPC: 1.42458 cumulative IPC: 1.43254 (Simulation time: 0 hr 0 min 53 sec) 
Heartbeat CPU  0 instructions:   29000000 cycles:   20247973 heartbeat IPC: 1.42409 cumulative IPC: 1.43224 (Simulation time: 0 hr 0 min 55 sec) 
Heartbeat CPU  0 instructions:   30000003 cycles:   20950102 heartbeat IPC: 1.42424 cumulative IPC: 1.43197 (Simulation time: 0 hr 0 min 57 sec) 
Heartbeat CPU  0 instructions:   31000003 cycles:   21651799 heartbeat IPC: 1.42512 cumulative IPC: 1.43175 (Simulation time: 0 hr 0 min 59 sec) 
Heartbeat CPU  0 instructions:   32000000 cycles:   22353685 heartbeat IPC: 1.42473 cumulative IPC: 1.43153 (Simulation time: 0 hr 1 min 0 sec) 
Heartbeat CPU  0 instructions:   33000001 cycles:   23056180 heartbeat IPC: 1.42350 cumulative IPC: 1.43129 (Simulation time: 0 hr 1 min 2 sec) 
Heartbeat CPU  0 instructions:   34000000 cycles:   23758150 heartbeat IPC: 1.42456 cumulative IPC: 1.43109 (Simulation time: 0 hr 1 min 4 sec) 
Heartbeat CPU  0 instructions:   35000001 cycles:   24460048 heartbeat IPC: 1.42471 cumulative IPC: 1.43090 (Simulation time: 0 hr 1 min 6 sec) 
Heartbeat CPU  0 instructions:   36000000 cycles:   25162027 heartbeat IPC: 1.42454 cumulative IPC: 1.43073 (Simulation time: 0 hr 1 min 8 sec) 
Heartbeat CPU  0 instructions:   37000000 cycles:   25864394 heartbeat IPC: 1.42376 cumulative IPC: 1.43054 (Simulation time: 0 hr 1 min 10 sec) 
Heartbeat CPU  0 instructions:   38000001 cycles:   26566389 heartbeat IPC: 1.42451 cumulative IPC: 1.43038 (Simulation time: 0 hr 1 min 12 sec) 
Heartbeat CPU  0 instructions:   39000000 cycles:   27268322 heartbeat IPC: 1.42464 cumulative IPC: 1.43023 (Simulation time: 0 hr 1 min 14 sec) 
Heartbeat CPU  0 instructions:   40000000 cycles:   27970310 heartbeat IPC: 1.42453 cumulative IPC: 1.43009 (Simulation time: 0 hr 1 min 16 sec) 
Heartbeat CPU  0 instructions:   41000000 cycles:   28571326 heartbeat IPC: 1.66385 cumulative IPC: 1.43501 (Simulation time: 0 hr 1 min 17 sec) 
Heartbeat CPU  0 instructions:   42000002 cycles:   29261982 heartbeat IPC: 1.44790 cumulative IPC: 1.43531 (Simulation time: 0 hr 1 min 19 sec) 
Heartbeat CPU  0 instructions:   43000002 cycles:   29964154 heartbeat IPC: 1.42415 cumulative IPC: 1.43505 (Simulation time: 0 hr 1 min 21 sec) 
Heartbeat CPU  0 instructions:   44000000 cycles:   30666284 heartbeat IPC: 1.42423 cumulative IPC: 1.43480 (Simulation time: 0 hr 1 min 23 sec) 
Heartbeat CPU  0 instructions:   45000003 cycles:   31368300 heartbeat IPC: 1.42447 cumulative IPC: 1.43457 (Simulation time: 0 hr 1 min 25 sec) 
Heartbeat CPU  0 instructions:   46000003 cycles:   32070230 heartbeat IPC: 1.42464 cumulative IPC: 1.43435 (Simulation time: 0 hr 1 min 27 sec) 
Heartbeat CPU  0 instructions:   47000000 cycles:   32772192 heartbeat IPC: 1.42457 cumulative IPC: 1.43414 (Simulation time: 0 hr 1 min 28 sec) 
Heartbeat CPU  0 instructions:   48000000 cycles:   33474540 heartbeat IPC: 1.42380 cumulative IPC: 1.43393 (Simulation time: 0 hr 1 min 30 sec) 
Heartbeat CPU  0 instructions:   49000000 cycles:   34176306 heartbeat IPC: 1.42498 cumulative IPC: 1.43374 (Simulation time: 0 hr 1 min 32 sec) 
Heartbeat CPU  0 instructions:   50000000 cycles:   34878404 heartbeat IPC: 1.42430 cumulative IPC: 1.43355 (Simulation time: 0 hr 1 min 34 sec) 
Heartbeat CPU  0 instructions:   51000000 cycles:   35580686 heartbeat IPC: 1.42393 cumulative IPC: 1.43336 (Simulation time: 0 hr 1 min 36 sec) 
Heartbeat CPU  0 instructions:   52000000 cycles:   36282581 heartbeat IPC: 1.42471 cumulative IPC: 1.43319 (Simulation time: 0 hr 1 min 38 sec) 
Heartbeat CPU  0 instructions:   53000000 cycles:   36984699 heartbeat IPC: 1.42426 cumulative IPC: 1.43303 (Simulation time: 0 hr 1 min 40 sec) 
Heartbeat CPU  0 instructions:   54000001 cycles:   37686541 heartbeat IPC: 1.42482 cumulative IPC: 1.43287 (Simulation time: 0 hr 1 min 41 sec) 
Heartbeat CPU  0 instructions:   55000001 cycles:   38388589 heartbeat IPC: 1.42440 cumulative IPC: 1.43272 (Simulation time: 0 hr 1 min 43 sec) 
Heartbeat CPU  0 instructions:   56000000 cycles:   39090809 heartbeat IPC: 1.42405 cumulative IPC: 1.43256 (Simulation time: 0 hr 1 min 45 sec) 
Heartbeat CPU  0 instructions:   57000000 cycles:   39793029 heartbeat IPC: 1.42406 cumulative IPC: 1.43241 (Simulation time: 0 hr 1 min 47 sec) 
Heartbeat CPU  0 instructions:   58000003 cycles:   40495050 heartbeat IPC: 1.42446 cumulative IPC: 1.43227 (Simulation time: 0 hr 1 min 49 sec) 
Heartbeat CPU  0 instructions:   59000000 cycles:   41196945 heartbeat IPC: 1.42471 cumulative IPC: 1.43214 (Simulation time: 0 hr 1 min 51 sec) 
Heartbeat CPU  0 instructions:   60000000 cycles:   41899166 heartbeat IPC: 1.42405 cumulative IPC: 1.43201 (Simulation time: 0 hr 1 min 52 sec) 
Heartbeat CPU  0 instructions:   61000000 cycles:   42601110 heartbeat IPC: 1.42462 cumulative IPC: 1.43189 (Simulation time: 0 hr 1 min 54 sec) 
Heartbeat CPU  0 instructions:   62000002 cycles:   43303048 heartbeat IPC: 1.42463 cumulative IPC: 1.43177 (Simulation time: 0 hr 1 min 56 sec) 
Heartbeat CPU  0 instructions:   63000000 cycles:   43947854 heartbeat IPC: 1.55085 cumulative IPC: 1.43352 (Simulation time: 0 hr 1 min 58 sec) 
Heartbeat CPU  0 instructions:   64000000 cycles:   44596553 heartbeat IPC: 1.54155 cumulative IPC: 1.43509 (Simulation time: 0 hr 2 min 0 sec) 
Heartbeat CPU  0 instructions:   65000000 cycles:   45298431 heartbeat IPC: 1.42475 cumulative IPC: 1.43493 (Simulation time: 0 hr 2 min 2 sec) 
Heartbeat CPU  0 instructions:   66000001 cycles:   46000243 heartbeat IPC: 1.42488 cumulative IPC: 1.43477 (Simulation time: 0 hr 2 min 3 sec) 
Heartbeat CPU  0 instructions:   67000002 cycles:   46702137 heartbeat IPC: 1.42472 cumulative IPC: 1.43462 (Simulation time: 0 hr 2 min 5 sec) 
Heartbeat CPU  0 instructions:   68000000 cycles:   47404303 heartbeat IPC: 1.42416 cumulative IPC: 1.43447 (Simulation time: 0 hr 2 min 7 sec) 
Heartbeat CPU  0 instructions:   69000000 cycles:   48106330 heartbeat IPC: 1.42445 cumulative IPC: 1.43432 (Simulation time: 0 hr 2 min 9 sec) 
Heartbeat CPU  0 instructions:   70000002 cycles:   48808247 heartbeat IPC: 1.42467 cumulative IPC: 1.43418 (Simulation time: 0 hr 2 min 11 sec) 
Heartbeat CPU  0 instructions:   71000003 cycles:   49510612 heartbeat IPC: 1.42376 cumulative IPC: 1.43404 (Simulation time: 0 hr 2 min 13 sec) 
Heartbeat CPU  0 instructions:   72000000 cycles:   50212496 heartbeat IPC: 1.42473 cumulative IPC: 1.43391 (Simulation time: 0 hr 2 min 15 sec) 
Heartbeat CPU  0 instructions:   73000001 cycles:   50914407 heartbeat IPC: 1.42468 cumulative IPC: 1.43378 (Simulation time: 0 hr 2 min 16 sec) 
Heartbeat CPU  0 instructions:   74000003 cycles:   51616512 heartbeat IPC: 1.42429 cumulative IPC: 1.43365 (Simulation time: 0 hr 2 min 18 sec) 
Heartbeat CPU  0 instructions:   75000002 cycles:   52318960 heartbeat IPC: 1.42359 cumulative IPC: 1.43351 (Simulation time: 0 hr 2 min 21 sec) 
Heartbeat CPU  0 instructions:   76000000 cycles:   53020906 heartbeat IPC: 1.42461 cumulative IPC: 1.43340 (Simulation time: 0 hr 2 min 23 sec) 
Heartbeat CPU  0 instructions:   77000003 cycles:   53723296 heartbeat IPC: 1.42371 cumulative IPC: 1.43327 (Simulation time: 0 hr 2 min 25 sec) 
Heartbeat CPU  0 instructions:   78000001 cycles:   54425626 heartbeat IPC: 1.42383 cumulative IPC: 1.43315 (Simulation time: 0 hr 2 min 27 sec) 
Heartbeat CPU  0 instructions:   79000001 cycles:   55127299 heartbeat IPC: 1.42517 cumulative IPC: 1.43305 (Simulation time: 0 hr 2 min 29 sec) 
Heartbeat CPU  0 instructions:   80000000 cycles:   55829132 heartbeat IPC: 1.42484 cumulative IPC: 1.43294 (Simulation time: 0 hr 2 min 31 sec) 
Heartbeat CPU  0 instructions:   81000002 cycles:   56531274 heartbeat IPC: 1.42422 cumulative IPC: 1.43284 (Simulation time: 0 hr 2 min 32 sec) 
Heartbeat CPU  0 instructions:   82000003 cycles:   57233289 heartbeat IPC: 1.42447 cumulative IPC: 1.43273 (Simulation time: 0 hr 2 min 34 sec) 
Heartbeat CPU  0 instructions:   83000001 cycles:   57935352 heartbeat IPC: 1.42437 cumulative IPC: 1.43263 (Simulation time: 0 hr 2 min 36 sec) 
Heartbeat CPU  0 instructions:   84000000 cycles:   58637327 heartbeat IPC: 1.42455 cumulative IPC: 1.43253 (Simulation time: 0 hr 2 min 38 sec) 
Heartbeat CPU  0 instructions:   85000000 cycles:   59325207 heartbeat IPC: 1.45374 cumulative IPC: 1.43278 (Simulation time: 0 hr 2 min 40 sec) 
Heartbeat CPU  0 instructions:   86000002 cycles:   59930189 heartbeat IPC: 1.65295 cumulative IPC: 1.43500 (Simulation time: 0 hr 2 min 42 sec) 
Heartbeat CPU  0 instructions:   87000002 cycles:   60632440 heartbeat IPC: 1.42399 cumulative IPC: 1.43488 (Simulation time: 0 hr 2 min 44 sec) 
Heartbeat CPU  0 instructions:   88000000 cycles:   61334781 heartbeat IPC: 1.42381 cumulative IPC: 1.43475 (Simulation time: 0 hr 2 min 46 sec) 
Heartbeat CPU  0 instructions:   89000001 cycles:   62036586 heartbeat IPC: 1.42490 cumulative IPC: 1.43464 (Simulation time: 0 hr 2 min 48 sec) 
Heartbeat CPU  0 instructions:   90000003 cycles:   62738710 heartbeat IPC: 1.42425 cumulative IPC: 1.43452 (Simulation time: 0 hr 2 min 50 sec) 
Heartbeat CPU  0 instructions:   91000003 cycles:   63440875 heartbeat IPC: 1.42417 cumulative IPC: 1.43441 (Simulation time: 0 hr 2 min 52 sec) 
Heartbeat CPU  0 instructions:   92000000 cycles:   64142831 heartbeat IPC: 1.42459 cumulative IPC: 1.43430 (Simulation time: 0 hr 2 min 54 sec) 
Heartbeat CPU  0 instructions:   93000002 cycles:   64844871 heartbeat IPC: 1.42442 cumulative IPC: 1.43419 (Simulation time: 0 hr 2 min 56 sec) 
Heartbeat CPU  0 instructions:   94000002 cycles:   65546690 heartbeat IPC: 1.42487 cumulative IPC: 1.43409 (Simulation time: 0 hr 2 min 57 sec) 
Heartbeat CPU  0 instructions:   95000003 cycles:   66248619 heartbeat IPC: 1.42465 cumulative IPC: 1.43399 (Simulation time: 0 hr 2 min 59 sec) 
Heartbeat CPU  0 instructions:   96000000 cycles:   66950690 heartbeat IPC: 1.42435 cumulative IPC: 1.43389 (Simulation time: 0 hr 3 min 1 sec) 
Heartbeat CPU  0 instructions:   97000000 cycles:   67652794 heartbeat IPC: 1.42429 cumulative IPC: 1.43379 (Simulation time: 0 hr 3 min 3 sec) 
Heartbeat CPU  0 instructions:   98000002 cycles:   68354724 heartbeat IPC: 1.42465 cumulative IPC: 1.43370 (Simulation time: 0 hr 3 min 5 sec) 
Heartbeat CPU  0 instructions:   99000003 cycles:   69056711 heartbeat IPC: 1.42453 cumulative IPC: 1.43360 (Simulation time: 0 hr 3 min 7 sec) 
Heartbeat CPU  0 instructions:  100000000 cycles:   69758880 heartbeat IPC: 1.42415 cumulative IPC: 1.43351 (Simulation time: 0 hr 3 min 9 sec) 

Warmup complete CPU  0 instructions:  100000001 cycles:   69758900 (Simulation time: 0 hr 3 min 9 sec) 

Heartbeat CPU  0 instructions:  101000000 cycles:   71662921 heartbeat IPC: 0.52520 cumulative IPC: 0.52520 (Simulation time: 0 hr 3 min 11 sec) 
Heartbeat CPU  0 instructions:  102000003 cycles:   73398681 heartbeat IPC: 0.57612 cumulative IPC: 0.54948 (Simulation time: 0 hr 3 min 13 sec) 
Heartbeat CPU  0 instructions:  103000003 cycles:   75243609 heartbeat IPC: 0.54203 cumulative IPC: 0.54698 (Simulation time: 0 hr 3 min 15 sec) 
Heartbeat CPU  0 instructions:  104000000 cycles:   77137160 heartbeat IPC: 0.52811 cumulative IPC: 0.54213 (Simulation time: 0 hr 3 min 18 sec) 
Heartbeat CPU  0 instructions:  105000002 cycles:   78952307 heartbeat IPC: 0.55092 cumulative IPC: 0.54387 (Simulation time: 0 hr 3 min 20 sec) 
Heartbeat CPU  0 instructions:  106000000 cycles:   80728621 heartbeat IPC: 0.56296 cumulative IPC: 0.54696 (Simulation time: 0 hr 3 min 22 sec) 
Heartbeat CPU  0 instructions:  107000003 cycles:   82617122 heartbeat IPC: 0.52952 cumulative IPC: 0.54440 (Simulation time: 0 hr 3 min 24 sec) 
Heartbeat CPU  0 instructions:  108000000 cycles:   93342653 heartbeat IPC: 0.09324 cumulative IPC: 0.33922 (Simulation time: 0 hr 3 min 26 sec) 
Heartbeat CPU  0 instructions:  109000003 cycles:  100095752 heartbeat IPC: 0.14808 cumulative IPC: 0.29667 (Simulation time: 0 hr 3 min 28 sec) 
Heartbeat CPU  0 instructions:  110000001 cycles:  101983285 heartbeat IPC: 0.52979 cumulative IPC: 0.31032 (Simulation time: 0 hr 3 min 31 sec) 
Heartbeat CPU  0 instructions:  111000000 cycles:  103879064 heartbeat IPC: 0.52749 cumulative IPC: 0.32239 (Simulation time: 0 hr 3 min 33 sec) 
Heartbeat CPU  0 instructions:  112000000 cycles:  105623905 heartbeat IPC: 0.57312 cumulative IPC: 0.33459 (Simulation time: 0 hr 3 min 35 sec) 
Heartbeat CPU  0 instructions:  113000000 cycles:  107471766 heartbeat IPC: 0.54117 cumulative IPC: 0.34471 (Simulation time: 0 hr 3 min 37 sec) 
Heartbeat CPU  0 instructions:  114000000 cycles:  109377520 heartbeat IPC: 0.52473 cumulative IPC: 0.35337 (Simulation time: 0 hr 3 min 39 sec) 
Heartbeat CPU  0 instructions:  115000001 cycles:  111191111 heartbeat IPC: 0.55139 cumulative IPC: 0.36204 (Simulation time: 0 hr 3 min 41 sec) 
Heartbeat CPU  0 instructions:  116000000 cycles:  112965677 heartbeat IPC: 0.56352 cumulative IPC: 0.37031 (Simulation time: 0 hr 3 min 43 sec) 
Heartbeat CPU  0 instructions:  117000003 cycles:  114862397 heartbeat IPC: 0.52723 cumulative IPC: 0.37691 (Simulation time: 0 hr 3 min 46 sec) 
Heartbeat CPU  0 instructions:  118000002 cycles:  116744762 heartbeat IPC: 0.53125 cumulative IPC: 0.38309 (Simulation time: 0 hr 3 min 48 sec) 
Heartbeat CPU  0 instructions:  119000002 cycles:  118469194 heartbeat IPC: 0.57990 cumulative IPC: 0.39006 (Simulation time: 0 hr 3 min 50 sec) 
Heartbeat CPU  0 instructions:  120000000 cycles:  120352530 heartbeat IPC: 0.53097 cumulative IPC: 0.39531 (Simulation time: 0 hr 3 min 52 sec) 
Heartbeat CPU  0 instructions:  121000003 cycles:  122247304 heartbeat IPC: 0.52777 cumulative IPC: 0.40009 (Simulation time: 0 hr 3 min 54 sec) 
Heartbeat CPU  0 instructions:  122000003 cycles:  124004975 heartbeat IPC: 0.56893 cumulative IPC: 0.40556 (Simulation time: 0 hr 3 min 56 sec) 
Heartbeat CPU  0 instructions:  123000002 cycles:  125835996 heartbeat IPC: 0.54614 cumulative IPC: 0.41015 (Simulation time: 0 hr 3 min 58 sec) 
Heartbeat CPU  0 instructions:  124000000 cycles:  127734774 heartbeat IPC: 0.52665 cumulative IPC: 0.41397 (Simulation time: 0 hr 4 min 0 sec) 
Heartbeat CPU  0 instructions:  125000000 cycles:  129571442 heartbeat IPC: 0.54446 cumulative IPC: 0.41797 (Simulation time: 0 hr 4 min 2 sec) 
Heartbeat CPU  0 instructions:  126000002 cycles:  131342210 heartbeat IPC: 0.56473 cumulative IPC: 0.42219 (Simulation time: 0 hr 4 min 4 sec) 
Heartbeat CPU  0 instructions:  127000002 cycles:  133356744 heartbeat IPC: 0.49639 cumulative IPC: 0.42454 (Simulation time: 0 hr 4 min 6 sec) 
Heartbeat CPU  0 instructions:  128000000 cycles:  135242511 heartbeat IPC: 0.53029 cumulative IPC: 0.42759 (Simulation time: 0 hr 4 min 8 sec) 
Heartbeat CPU  0 instructions:  129000001 cycles:  136964362 heartbeat IPC: 0.58077 cumulative IPC: 0.43151 (Simulation time: 0 hr 4 min 10 sec) 
Heartbeat CPU  0 instructions:  130000000 cycles:  142465169 heartbeat IPC: 0.18179 cumulative IPC: 0.41262 (Simulation time: 0 hr 4 min 13 sec) 
Heartbeat CPU  0 instructions:  131000003 cycles:  154578303 heartbeat IPC: 0.08256 cumulative IPC: 0.36548 (Simulation time: 0 hr 4 min 15 sec) 
Heartbeat CPU  0 instructions:  132000000 cycles:  156338147 heartbeat IPC: 0.56823 cumulative IPC: 0.36960 (Simulation time: 0 hr 4 min 17 sec) 
Heartbeat CPU  0 instructions:  133000000 cycles:  158171582 heartbeat IPC: 0.54542 cumulative IPC: 0.37325 (Simulation time: 0 hr 4 min 19 sec) 
Heartbeat CPU  0 instructions:  134000000 cycles:  160069121 heartbeat IPC: 0.52700 cumulative IPC: 0.37648 (Simulation time: 0 hr 4 min 21 sec) 
Heartbeat CPU  0 instructions:  135000000 cycles:  161903163 heartbeat IPC: 0.54524 cumulative IPC: 0.37984 (Simulation time: 0 hr 4 min 23 sec) 
Heartbeat CPU  0 instructions:  136000000 cycles:  163661649 heartbeat IPC: 0.56867 cumulative IPC: 0.38338 (Simulation time: 0 hr 4 min 26 sec) 
Heartbeat CPU  0 instructions:  137000002 cycles:  165560054 heartbeat IPC: 0.52676 cumulative IPC: 0.38622 (Simulation time: 0 hr 4 min 28 sec) 
Heartbeat CPU  0 instructions:  138000001 cycles:  167448083 heartbeat IPC: 0.52965 cumulative IPC: 0.38899 (Simulation time: 0 hr 4 min 30 sec) 
Heartbeat CPU  0 instructions:  139000001 cycles:  169171089 heartbeat IPC: 0.58038 cumulative IPC: 0.39231 (Simulation time: 0 hr 4 min 32 sec) 
Heartbeat CPU  0 instructions:  140000000 cycles:  171057285 heartbeat IPC: 0.53017 cumulative IPC: 0.39487 (Simulation time: 0 hr 4 min 34 sec) 
Heartbeat CPU  0 instructions:  141000000 cycles:  172955070 heartbeat IPC: 0.52693 cumulative IPC: 0.39730 (Simulation time: 0 hr 4 min 36 sec) 
Heartbeat CPU  0 instructions:  142000001 cycles:  174730369 heartbeat IPC: 0.56329 cumulative IPC: 0.40011 (Simulation time: 0 hr 4 min 38 sec) 
Heartbeat CPU  0 instructions:  143000001 cycles:  176546224 heartbeat IPC: 0.55070 cumulative IPC: 0.40267 (Simulation time: 0 hr 4 min 40 sec) 
Heartbeat CPU  0 instructions:  144000000 cycles:  178445813 heartbeat IPC: 0.52643 cumulative IPC: 0.40483 (Simulation time: 0 hr 4 min 42 sec) 
Heartbeat CPU  0 instructions:  145000000 cycles:  180298883 heartbeat IPC: 0.53965 cumulative IPC: 0.40709 (Simulation time: 0 hr 4 min 44 sec) 
Heartbeat CPU  0 instructions:  146000002 cycles:  182043710 heartbeat IPC: 0.57312 cumulative IPC: 0.40967 (Simulation time: 0 hr 4 min 47 sec) 
Heartbeat CPU  0 instructions:  147000003 cycles:  183937696 heartbeat IPC: 0.52799 cumulative IPC: 0.41164 (Simulation time: 0 hr 4 min 49 sec) 
Heartbeat CPU  0 instructions:  148000000 cycles:  185826646 heartbeat IPC: 0.52939 cumulative IPC: 0.41355 (Simulation time: 0 hr 4 min 51 sec) 
Heartbeat CPU  0 instructions:  149000002 cycles:  187556226 heartbeat IPC: 0.57818 cumulative IPC: 0.41597 (Simulation time: 0 hr 4 min 53 sec) 
Heartbeat CPU  0 instructions:  150000003 cycles:  189428999 heartbeat IPC: 0.53397 cumulative IPC: 0.41782 (Simulation time: 0 hr 4 min 55 sec) 
Heartbeat CPU  0 instructions:  151000003 cycles:  191321453 heartbeat IPC: 0.52841 cumulative IPC: 0.41954 (Simulation time: 0 hr 4 min 57 sec) 
Heartbeat CPU  0 instructions:  152000000 cycles:  193126852 heartbeat IPC: 0.55389 cumulative IPC: 0.42150 (Simulation time: 0 hr 4 min 59 sec) 
Heartbeat CPU  0 instructions:  153000003 cycles:  205943278 heartbeat IPC: 0.07803 cumulative IPC: 0.38918 (Simulation time: 0 hr 5 min 2 sec) 
Heartbeat CPU  0 instructions:  154000000 cycles:  210877238 heartbeat IPC: 0.20268 cumulative IPC: 0.38266 (Simulation time: 0 hr 5 min 4 sec) 
Heartbeat CPU  0 instructions:  155000000 cycles:  212729291 heartbeat IPC: 0.53994 cumulative IPC: 0.38470 (Simulation time: 0 hr 5 min 6 sec) 
Heartbeat CPU  0 instructions:  156000000 cycles:  214469374 heartbeat IPC: 0.57469 cumulative IPC: 0.38698 (Simulation time: 0 hr 5 min 8 sec) 
Heartbeat CPU  0 instructions:  157000001 cycles:  216363685 heartbeat IPC: 0.52790 cumulative IPC: 0.38880 (Simulation time: 0 hr 5 min 10 sec) 
Heartbeat CPU  0 instructions:  158000001 cycles:  218254162 heartbeat IPC: 0.52897 cumulative IPC: 0.39058 (Simulation time: 0 hr 5 min 12 sec) 
Heartbeat CPU  0 instructions:  159000000 cycles:  219980367 heartbeat IPC: 0.57930 cumulative IPC: 0.39275 (Simulation time: 0 hr 5 min 14 sec) 
Heartbeat CPU  0 instructions:  160000000 cycles:  221855746 heartbeat IPC: 0.53323 cumulative IPC: 0.39449 (Simulation time: 0 hr 5 min 16 sec) 
Heartbeat CPU  0 instructions:  161000003 cycles:  223753954 heartbeat IPC: 0.52681 cumulative IPC: 0.39612 (Simulation time: 0 hr 5 min 18 sec) 
Heartbeat CPU  0 instructions:  162000000 cycles:  225546306 heartbeat IPC: 0.55792 cumulative IPC: 0.39798 (Simulation time: 0 hr 5 min 20 sec) 
Heartbeat CPU  0 instructions:  163000003 cycles:  227346888 heartbeat IPC: 0.55538 cumulative IPC: 0.39978 (Simulation time: 0 hr 5 min 23 sec) 
Heartbeat CPU  0 instructions:  164000000 cycles:  229241381 heartbeat IPC: 0.52784 cumulative IPC: 0.40130 (Simulation time: 0 hr 5 min 25 sec) 
Heartbeat CPU  0 instructions:  165000000 cycles:  231119138 heartbeat IPC: 0.53255 cumulative IPC: 0.40283 (Simulation time: 0 hr 5 min 27 sec) 
Heartbeat CPU  0 instructions:  166000001 cycles:  232844464 heartbeat IPC: 0.57960 cumulative IPC: 0.40470 (Simulation time: 0 hr 5 min 29 sec) 
Heartbeat CPU  0 instructions:  167000000 cycles:  234735440 heartbeat IPC: 0.52883 cumulative IPC: 0.40612 (Simulation time: 0 hr 5 min 31 sec) 
Heartbeat CPU  0 instructions:  168000000 cycles:  236629541 heartbeat IPC: 0.52795 cumulative IPC: 0.40750 (Simulation time: 0 hr 5 min 33 sec) 
Heartbeat CPU  0 instructions:  169000001 cycles:  238366423 heartbeat IPC: 0.57574 cumulative IPC: 0.40923 (Simulation time: 0 hr 5 min 35 sec) 
Heartbeat CPU  0 instructions:  170000002 cycles:  240223597 heartbeat IPC: 0.53845 cumulative IPC: 0.41064 (Simulation time: 0 hr 5 min 37 sec) 
Heartbeat CPU  0 instructions:  171000001 cycles:  242124448 heartbeat IPC: 0.52608 cumulative IPC: 0.41192 (Simulation time: 0 hr 5 min 40 sec) 
Heartbeat CPU  0 instructions:  172000000 cycles:  243936311 heartbeat IPC: 0.55192 cumulative IPC: 0.41337 (Simulation time: 0 hr 5 min 42 sec) 
Heartbeat CPU  0 instructions:  173000000 cycles:  245719247 heartbeat IPC: 0.56087 cumulative IPC: 0.41487 (Simulation time: 0 hr 5 min 44 sec) 
Heartbeat CPU  0 instructions:  174000003 cycles:  247617090 heartbeat IPC: 0.52692 cumulative IPC: 0.41606 (Simulation time: 0 hr 5 min 46 sec) 
Heartbeat CPU  0 instructions:  175000000 cycles:  254791561 heartbeat IPC: 0.13938 cumulative IPC: 0.40533 (Simulation time: 0 hr 5 min 48 sec) 
Heartbeat CPU  0 instructions:  176000000 cycles:  265062590 heartbeat IPC: 0.09736 cumulative IPC: 0.38914 (Simulation time: 0 hr 5 min 51 sec) 
Heartbeat CPU  0 instructions:  177000001 cycles:  267025471 heartbeat IPC: 0.50946 cumulative IPC: 0.39033 (Simulation time: 0 hr 5 min 53 sec) 
Heartbeat CPU  0 instructions:  178000003 cycles:  269071751 heartbeat IPC: 0.48869 cumulative IPC: 0.39134 (Simulation time: 0 hr 5 min 55 sec) 
Heartbeat CPU  0 instructions:  179000002 cycles:  270975435 heartbeat IPC: 0.52530 cumulative IPC: 0.39261 (Simulation time: 0 hr 5 min 57 sec) 
Heartbeat CPU  0 instructions:  180000000 cycles:  272860457 heartbeat IPC: 0.53050 cumulative IPC: 0.39389 (Simulation time: 0 hr 5 min 59 sec) 
Heartbeat CPU  0 instructions:  181000003 cycles:  274771649 heartbeat IPC: 0.52324 cumulative IPC: 0.39510 (Simulation time: 0 hr 6 min 1 sec) 
Heartbeat CPU  0 instructions:  182000003 cycles:  276599838 heartbeat IPC: 0.54699 cumulative IPC: 0.39644 (Simulation time: 0 hr 6 min 3 sec) 
Heartbeat CPU  0 instructions:  183000000 cycles:  278409821 heartbeat IPC: 0.55249 cumulative IPC: 0.39779 (Simulation time: 0 hr 6 min 5 sec) 
Heartbeat CPU  0 instructions:  184000000 cycles:  280320766 heartbeat IPC: 0.52330 cumulative IPC: 0.39893 (Simulation time: 0 hr 6 min 7 sec) 
Heartbeat CPU  0 instructions:  185000002 cycles:  282221286 heartbeat IPC: 0.52617 cumulative IPC: 0.40007 (Simulation time: 0 hr 6 min 9 sec) 
Heartbeat CPU  0 instructions:  186000001 cycles:  283981258 heartbeat IPC: 0.56819 cumulative IPC: 0.40145 (Simulation time: 0 hr 6 min 11 sec) 
Heartbeat CPU  0 instructions:  187000000 cycles:  285880270 heartbeat IPC: 0.52659 cumulative IPC: 0.40255 (Simulation time: 0 hr 6 min 13 sec) 
Heartbeat CPU  0 instructions:  188000000 cycles:  287792000 heartbeat IPC: 0.52309 cumulative IPC: 0.40361 (Simulation time: 0 hr 6 min 15 sec) 
Heartbeat CPU  0 instructions:  189000000 cycles:  289562984 heartbeat IPC: 0.56466 cumulative IPC: 0.40491 (Simulation time: 0 hr 6 min 18 sec) 
Heartbeat CPU  0 instructions:  190000000 cycles:  291431021 heartbeat IPC: 0.53532 cumulative IPC: 0.40601 (Simulation time: 0 hr 6 min 20 sec) 
Heartbeat CPU  0 instructions:  191000000 cycles:  293344207 heartbeat IPC: 0.52269 cumulative IPC: 0.40700 (Simulation time: 0 hr 6 min 22 sec) 
Heartbeat CPU  0 instructions:  192000000 cycles:  295187048 heartbeat IPC: 0.54264 cumulative IPC: 0.40811 (Simulation time: 0 hr 6 min 24 sec) 
Heartbeat CPU  0 instructions:  193000001 cycles:  296983624 heartbeat IPC: 0.55661 cumulative IPC: 0.40929 (Simulation time: 0 hr 6 min 26 sec) 
Heartbeat CPU  0 instructions:  194000000 cycles:  298897018 heartbeat IPC: 0.52263 cumulative IPC: 0.41023 (Simulation time: 0 hr 6 min 28 sec) 
Heartbeat CPU  0 instructions:  195000002 cycles:  300796914 heartbeat IPC: 0.52635 cumulative IPC: 0.41119 (Simulation time: 0 hr 6 min 30 sec) 
Heartbeat CPU  0 instructions:  196000000 cycles:  302552073 heartbeat IPC: 0.56975 cumulative IPC: 0.41238 (Simulation time: 0 hr 6 min 32 sec) 
Heartbeat CPU  0 instructions:  197000000 cycles:  304561626 heartbeat IPC: 0.49762 cumulative IPC: 0.41311 (Simulation time: 0 hr 6 min 34 sec) 
Heartbeat CPU  0 instructions:  198000003 cycles:  318878923 heartbeat IPC: 0.06985 cumulative IPC: 0.39338 (Simulation time: 0 hr 6 min 36 sec) 
Heartbeat CPU  0 instructions:  199000001 cycles:  321988683 heartbeat IPC: 0.32157 cumulative IPC: 0.39250 (Simulation time: 0 hr 6 min 38 sec) 
Heartbeat CPU  0 instructions:  200000000 cycles:  323859796 heartbeat IPC: 0.53444 cumulative IPC: 0.39354 (Simulation time: 0 hr 6 min 40 sec) 
Finished CPU 0 instructions: 100000000 cycles: 254100924 cumulative IPC: 0.39354 (Simulation time: 0 hr 6 min 40 sec) 

ChampSim completed all CPUs

[ROI Statistics]
Core_0_instructions 100000000
Core_0_cycles 254100924
Core_0_IPC 0.39354

Core_0_branch_prediction_accuracy 99.16976
Core_0_branch_MPKI 0.01138
Core_0_average_ROB_occupancy_at_mispredict 253.39455

Core_0_L1D_total_access 83620981
Core_0_L1D_total_hit 82779318
Core_0_L1D_total_miss 841663
Core_0_L1D_loads 34096473
Core_0_L1D_load_hit 34066661
Core_0_L1D_load_miss 29812
Core_0_L1D_RFOs 16650697
Core_0_L1D_RFO_hit 16486179
Core_0_L1D_RFO_miss 164518
Core_0_L1D_prefetches 32873811
Core_0_L1D_prefetch_hit 32226478
Core_0_L1D_prefetch_miss 647333
Core_0_L1D_writebacks 0
Core_0_L1D_writeback_hit 0
Core_0_L1D_writeback_miss 0
Core_0_L1D_prefetch_requested 81144946
Core_0_L1D_prefetch_issued 78597792
Core_0_L1D_prefetch_useful 1249419
Core_0_L1D_prefetch_useless 36492
Core_0_L1D_prefetch_late 2661
Core_0_L1D_average_miss_latency 648788.47467

Core_0_L1I_total_access 26516264
Core_0_L1I_total_hit 26516264
Core_0_L1I_total_miss 0
Core_0_L1I_loads 26516264
Core_0_L1I_load_hit 26516264
Core_0_L1I_load_miss 0
Core_0_L1I_RFOs 0
Core_0_L1I_RFO_hit 0
Core_0_L1I_RFO_miss 0
Core_0_L1I_prefetches 0
Core_0_L1I_prefetch_hit 0
Core_0_L1I_prefetch_miss 0
Core_0_L1I_writebacks 0
Core_0_L1I_writeback_hit 0
Core_0_L1I_writeback_miss 0
Core_0_L1I_prefetch_requested 0
Core_0_L1I_prefetch_issued 0
Core_0_L1I_prefetch_useful 0
Core_0_L1I_prefetch_useless 0
Core_0_L1I_prefetch_late 0
Core_0_L1I_average_miss_latency -nan

Core_0_L2C_total_access 1011950
Core_0_L2C_total_hit 468867
Core_0_L2C_total_miss 543083
Core_0_L2C_loads 27181
Core_0_L2C_load_hit 20828
Core_0_L2C_load_miss 6353
Core_0_L2C_RFOs 164425
Core_0_L2C_RFO_hit 281
Core_0_L2C_RFO_miss 164144
Core_0_L2C_prefetches 650038
Core_0_L2C_prefetch_hit 277668
Core_0_L2C_prefetch_miss 372370
Core_0_L2C_writebacks 170306
Core_0_L2C_writeback_hit 170090
Core_0_L2C_writeback_miss 216
Core_0_L2C_prefetch_requested 0
Core_0_L2C_prefetch_issued 0
Core_0_L2C_prefetch_useful 11591
Core_0_L2C_prefetch_useless 705400
Core_0_L2C_prefetch_late 0
Core_0_L2C_average_miss_latency 291.56798

Core_0_LLC_total_access 706732
Core_0_LLC_total_hit 182226
Core_0_LLC_total_miss 524506
Core_0_LLC_loads 6353
Core_0_LLC_load_hit 427
Core_0_LLC_load_miss 5926
Core_0_LLC_RFOs 164144
Core_0_LLC_RFO_hit 2
Core_0_LLC_RFO_miss 164142
Core_0_LLC_prefetches 372370
Core_0_LLC_prefetch_hit 22930
Core_0_LLC_prefetch_miss 349440
Core_0_LLC_writebacks 163865
Core_0_LLC_writeback_hit 158867
Core_0_LLC_writeback_miss 4998
Core_0_LLC_prefetch_requested 0
Core_0_LLC_prefetch_issued 0
Core_0_LLC_prefetch_useful 21
Core_0_LLC_prefetch_useless 671059
Core_0_LLC_prefetch_late 0
Core_0_LLC_average_miss_latency 227.78859

Core_0_major_page_fault 0
Core_0_minor_page_fault 8761

CPU 0 L1D next line prefetcher final stats
Channel_0_RQ_row_buffer_hit 123162
Channel_0_RQ_row_buffer_miss 396345
Channel_0_WQ_row_buffer_hit 19299
Channel_0_WQ_row_buffer_miss 137971
Channel_0_WQ_full 0
Channel_0_dbus_congested 160531

avg_congested_cycle 10
