*************************************************
   ChampSim Multicore Out-of-Order Simulator
   Last compiled: Dec 22 2023 19:58:29
*************************************************

trace_0 ./test_trace/436.cactusADM-1804B.champsimtrace.xz
Initialize DRRIP state
Assign rand_sets[0]: 454  LLC: 2048
rand_sets[0]: 454
Assign rand_sets[1]: 1662  LLC: 2048
rand_sets[1]: 1662
Assign rand_sets[2]: 1921  LLC: 2048
rand_sets[2]: 1921
Assign rand_sets[3]: 1131  LLC: 2048
rand_sets[3]: 1131
Assign rand_sets[4]: 331  LLC: 2048
rand_sets[4]: 331
Assign rand_sets[5]: 1531  LLC: 2048
rand_sets[5]: 1531
Assign rand_sets[6]: 482  LLC: 2048
rand_sets[6]: 482
Assign rand_sets[7]: 1275  LLC: 2048
rand_sets[7]: 1275
Assign rand_sets[8]: 1876  LLC: 2048
rand_sets[8]: 1876
Assign rand_sets[9]: 2038  LLC: 2048
rand_sets[9]: 2038
Assign rand_sets[10]: 701  LLC: 2048
rand_sets[10]: 701
Assign rand_sets[11]: 479  LLC: 2048
rand_sets[11]: 479
Assign rand_sets[12]: 892  LLC: 2048
rand_sets[12]: 892
Assign rand_sets[13]: 1820  LLC: 2048
rand_sets[13]: 1820
Assign rand_sets[14]: 1505  LLC: 2048
rand_sets[14]: 1505
Assign rand_sets[15]: 1159  LLC: 2048
rand_sets[15]: 1159
Assign rand_sets[16]: 513  LLC: 2048
rand_sets[16]: 513
Assign rand_sets[17]: 703  LLC: 2048
rand_sets[17]: 703
Assign rand_sets[18]: 561  LLC: 2048
rand_sets[18]: 561
Assign rand_sets[19]: 990  LLC: 2048
rand_sets[19]: 990
Assign rand_sets[20]: 342  LLC: 2048
rand_sets[20]: 342
Assign rand_sets[21]: 882  LLC: 2048
rand_sets[21]: 882
Assign rand_sets[22]: 15  LLC: 2048
rand_sets[22]: 15
Assign rand_sets[23]: 71  LLC: 2048
rand_sets[23]: 71
Assign rand_sets[24]: 1127  LLC: 2048
rand_sets[24]: 1127
Assign rand_sets[25]: 1382  LLC: 2048
rand_sets[25]: 1382
Assign rand_sets[26]: 647  LLC: 2048
rand_sets[26]: 647
Assign rand_sets[27]: 857  LLC: 2048
rand_sets[27]: 857
Assign rand_sets[28]: 1450  LLC: 2048
rand_sets[28]: 1450
Assign rand_sets[29]: 1160  LLC: 2048
rand_sets[29]: 1160
Assign rand_sets[30]: 1852  LLC: 2048
rand_sets[30]: 1852
Assign rand_sets[31]: 1881  LLC: 2048
rand_sets[31]: 1881
Assign rand_sets[32]: 1770  LLC: 2048
rand_sets[32]: 1770
Assign rand_sets[33]: 1622  LLC: 2048
rand_sets[33]: 1622
Assign rand_sets[34]: 275  LLC: 2048
rand_sets[34]: 275
Assign rand_sets[35]: 635  LLC: 2048
rand_sets[35]: 635
Assign rand_sets[36]: 466  LLC: 2048
rand_sets[36]: 466
Assign rand_sets[37]: 1413  LLC: 2048
rand_sets[37]: 1413
Assign rand_sets[38]: 417  LLC: 2048
rand_sets[38]: 417
Assign rand_sets[39]: 472  LLC: 2048
rand_sets[39]: 472
Assign rand_sets[40]: 1340  LLC: 2048
rand_sets[40]: 1340
Assign rand_sets[41]: 852  LLC: 2048
rand_sets[41]: 852
Assign rand_sets[42]: 1365  LLC: 2048
rand_sets[42]: 1365
Assign rand_sets[43]: 47  LLC: 2048
rand_sets[43]: 47
Assign rand_sets[44]: 823  LLC: 2048
rand_sets[44]: 823
Assign rand_sets[45]: 686  LLC: 2048
rand_sets[45]: 686
Assign rand_sets[46]: 1637  LLC: 2048
rand_sets[46]: 1637
Assign rand_sets[47]: 1115  LLC: 2048
rand_sets[47]: 1115
Assign rand_sets[48]: 986  LLC: 2048
rand_sets[48]: 986
Assign rand_sets[49]: 258  LLC: 2048
rand_sets[49]: 258
Assign rand_sets[50]: 633  LLC: 2048
rand_sets[50]: 633
Assign rand_sets[51]: 920  LLC: 2048
rand_sets[51]: 920
Assign rand_sets[52]: 204  LLC: 2048
rand_sets[52]: 204
Assign rand_sets[53]: 227  LLC: 2048
rand_sets[53]: 227
Assign rand_sets[54]: 1818  LLC: 2048
rand_sets[54]: 1818
Assign rand_sets[55]: 886  LLC: 2048
rand_sets[55]: 886
Assign rand_sets[56]: 1422  LLC: 2048
rand_sets[56]: 1422
Assign rand_sets[57]: 607  LLC: 2048
rand_sets[57]: 607
Assign rand_sets[58]: 217  LLC: 2048
rand_sets[58]: 217
Assign rand_sets[59]: 1945  LLC: 2048
rand_sets[59]: 1945
Assign rand_sets[60]: 143  LLC: 2048
rand_sets[60]: 143
Assign rand_sets[61]: 1311  LLC: 2048
rand_sets[61]: 1311
Assign rand_sets[62]: 319  LLC: 2048
rand_sets[62]: 319
Assign rand_sets[63]: 1846  LLC: 2048
rand_sets[63]: 1846
LLC Next Line Prefetcher
warmup_instructions 100000000
simulation_instructions 100000000
champsim_seed 271

num_cpus 1
cpu_freq 4000
dram_io_freq 2400
page_size 4096
block_size 64
max_read_per_cycle 8
max_fill_per_cycle 1
dram_channels 1
dram_ranks 1
dram_banks 8
dram_rows 65536
dram_columns 128
dram_row_size 8
dram_size 4096
dram_pages 1048576

fetch_width 6
decode_width 6
exec_width 4
lq_width 2
sq_width 2
retire_width 4
scheduler_size 128
branch_mispredict_penalty 20
rob_size 256
lq_size 72
sq_size 56
num_instr_destinations_sparc 4
num_instr_destinations 2
num_instr_sources 4

itlb_set 16
itlb_way 8
itlb_rq_size 16
itlb_wq_size 16
itlb_pq_size 0
itlb_mshr_size 8
itlb_latency 1

dtlb_set 16
dtlb_way 4
dtlb_rq_size 16
dtlb_wq_size 16
dtlb_pq_size 0
dtlb_mshr_size 8
dtlb_latency 1

stlb_set 128
stlb_way 12
stlb_rq_size 32
stlb_wq_size 32
stlb_pq_size 0
stlb_mshr_size 16
stlb_latency 8

l1i_size 32
l1i_set 64
l1i_way 8
l1i_rq_size 64
l1i_wq_size 64
l1i_pq_size 8
l1i_mshr_size 8
l1i_latency 1

l1d_size 32
l1d_set 64
l1d_way 8
l1d_rq_size 64
l1d_wq_size 64
l1d_pq_size 8
l1d_mshr_size 16
l1d_latency 4

l2c_size 512
l2c_set 1024
l2c_way 8
l2c_rq_size 32
l2c_wq_size 32
l2c_pq_size 16
l2c_mshr_size 32
l2c_latency 10

llc_size 2048
llc_set 2048
llc_way 16
llc_rq_size 32
llc_wq_size 32
llc_pq_size 32
llc_mshr_size 64
llc_latency 20

dram_channel_width 8
dram_wq_size 64
dram_rq_size 64
tRP 15
tRCD 15
tCAS 12.5
dram_dbus_turn_around_time 30
dram_write_high_wm 56
dram_write_low_wm 48
min_dram_writes_per_switch 16
dram_mtps 2400
dram_dbus_return_time 13


Heartbeat CPU  0 instructions:    1000003 cycles:     702377 heartbeat IPC: 1.42374 cumulative IPC: 1.42374 (Simulation time: 0 hr 0 min 2 sec) 
Heartbeat CPU  0 instructions:    2000000 cycles:    1404542 heartbeat IPC: 1.42416 cumulative IPC: 1.42395 (Simulation time: 0 hr 0 min 4 sec) 
Heartbeat CPU  0 instructions:    3000000 cycles:    2106868 heartbeat IPC: 1.42384 cumulative IPC: 1.42391 (Simulation time: 0 hr 0 min 5 sec) 
Heartbeat CPU  0 instructions:    4000000 cycles:    2809244 heartbeat IPC: 1.42374 cumulative IPC: 1.42387 (Simulation time: 0 hr 0 min 7 sec) 
Heartbeat CPU  0 instructions:    5000000 cycles:    3511420 heartbeat IPC: 1.42414 cumulative IPC: 1.42393 (Simulation time: 0 hr 0 min 9 sec) 
Heartbeat CPU  0 instructions:    6000000 cycles:    4213828 heartbeat IPC: 1.42367 cumulative IPC: 1.42388 (Simulation time: 0 hr 0 min 11 sec) 
Heartbeat CPU  0 instructions:    7000001 cycles:    4916216 heartbeat IPC: 1.42372 cumulative IPC: 1.42386 (Simulation time: 0 hr 0 min 13 sec) 
Heartbeat CPU  0 instructions:    8000000 cycles:    5618346 heartbeat IPC: 1.42424 cumulative IPC: 1.42391 (Simulation time: 0 hr 0 min 15 sec) 
Heartbeat CPU  0 instructions:    9000001 cycles:    6320843 heartbeat IPC: 1.42350 cumulative IPC: 1.42386 (Simulation time: 0 hr 0 min 17 sec) 
Heartbeat CPU  0 instructions:   10000000 cycles:    7023056 heartbeat IPC: 1.42407 cumulative IPC: 1.42388 (Simulation time: 0 hr 0 min 20 sec) 
Heartbeat CPU  0 instructions:   11000002 cycles:    7725249 heartbeat IPC: 1.42411 cumulative IPC: 1.42390 (Simulation time: 0 hr 0 min 22 sec) 
Heartbeat CPU  0 instructions:   12000000 cycles:    8427400 heartbeat IPC: 1.42419 cumulative IPC: 1.42393 (Simulation time: 0 hr 0 min 24 sec) 
Heartbeat CPU  0 instructions:   13000000 cycles:    9129963 heartbeat IPC: 1.42336 cumulative IPC: 1.42388 (Simulation time: 0 hr 0 min 25 sec) 
Heartbeat CPU  0 instructions:   14000002 cycles:    9832194 heartbeat IPC: 1.42404 cumulative IPC: 1.42389 (Simulation time: 0 hr 0 min 27 sec) 
Heartbeat CPU  0 instructions:   15000002 cycles:   10534147 heartbeat IPC: 1.42460 cumulative IPC: 1.42394 (Simulation time: 0 hr 0 min 29 sec) 
Heartbeat CPU  0 instructions:   16000000 cycles:   11236657 heartbeat IPC: 1.42346 cumulative IPC: 1.42391 (Simulation time: 0 hr 0 min 31 sec) 
Heartbeat CPU  0 instructions:   17000000 cycles:   11939207 heartbeat IPC: 1.42339 cumulative IPC: 1.42388 (Simulation time: 0 hr 0 min 33 sec) 
Heartbeat CPU  0 instructions:   18000001 cycles:   12600513 heartbeat IPC: 1.51216 cumulative IPC: 1.42851 (Simulation time: 0 hr 0 min 35 sec) 
Heartbeat CPU  0 instructions:   19000000 cycles:   13236251 heartbeat IPC: 1.57297 cumulative IPC: 1.43545 (Simulation time: 0 hr 0 min 37 sec) 
Heartbeat CPU  0 instructions:   20000000 cycles:   13938743 heartbeat IPC: 1.42350 cumulative IPC: 1.43485 (Simulation time: 0 hr 0 min 38 sec) 
Heartbeat CPU  0 instructions:   21000000 cycles:   14641139 heartbeat IPC: 1.42370 cumulative IPC: 1.43431 (Simulation time: 0 hr 0 min 40 sec) 
Heartbeat CPU  0 instructions:   22000002 cycles:   15343415 heartbeat IPC: 1.42394 cumulative IPC: 1.43384 (Simulation time: 0 hr 0 min 42 sec) 
Heartbeat CPU  0 instructions:   23000001 cycles:   16045831 heartbeat IPC: 1.42366 cumulative IPC: 1.43339 (Simulation time: 0 hr 0 min 44 sec) 
Heartbeat CPU  0 instructions:   24000000 cycles:   16747930 heartbeat IPC: 1.42430 cumulative IPC: 1.43301 (Simulation time: 0 hr 0 min 46 sec) 
Heartbeat CPU  0 instructions:   25000001 cycles:   17450236 heartbeat IPC: 1.42388 cumulative IPC: 1.43265 (Simulation time: 0 hr 0 min 48 sec) 
Heartbeat CPU  0 instructions:   26000003 cycles:   18152899 heartbeat IPC: 1.42316 cumulative IPC: 1.43228 (Simulation time: 0 hr 0 min 49 sec) 
Heartbeat CPU  0 instructions:   27000003 cycles:   18855106 heartbeat IPC: 1.42408 cumulative IPC: 1.43197 (Simulation time: 0 hr 0 min 51 sec) 
Heartbeat CPU  0 instructions:   28000000 cycles:   19557262 heartbeat IPC: 1.42418 cumulative IPC: 1.43169 (Simulation time: 0 hr 0 min 53 sec) 
Heartbeat CPU  0 instructions:   29000000 cycles:   20259646 heartbeat IPC: 1.42372 cumulative IPC: 1.43142 (Simulation time: 0 hr 0 min 55 sec) 
Heartbeat CPU  0 instructions:   30000003 cycles:   20962011 heartbeat IPC: 1.42377 cumulative IPC: 1.43116 (Simulation time: 0 hr 0 min 57 sec) 
Heartbeat CPU  0 instructions:   31000003 cycles:   21663901 heartbeat IPC: 1.42472 cumulative IPC: 1.43095 (Simulation time: 0 hr 0 min 59 sec) 
Heartbeat CPU  0 instructions:   32000000 cycles:   22365998 heartbeat IPC: 1.42430 cumulative IPC: 1.43074 (Simulation time: 0 hr 1 min 0 sec) 
Heartbeat CPU  0 instructions:   33000001 cycles:   23068701 heartbeat IPC: 1.42308 cumulative IPC: 1.43051 (Simulation time: 0 hr 1 min 2 sec) 
Heartbeat CPU  0 instructions:   34000000 cycles:   23770857 heartbeat IPC: 1.42418 cumulative IPC: 1.43032 (Simulation time: 0 hr 1 min 4 sec) 
Heartbeat CPU  0 instructions:   35000001 cycles:   24473087 heartbeat IPC: 1.42404 cumulative IPC: 1.43014 (Simulation time: 0 hr 1 min 6 sec) 
Heartbeat CPU  0 instructions:   36000000 cycles:   25175323 heartbeat IPC: 1.42402 cumulative IPC: 1.42997 (Simulation time: 0 hr 1 min 8 sec) 
Heartbeat CPU  0 instructions:   37000000 cycles:   25877846 heartbeat IPC: 1.42344 cumulative IPC: 1.42979 (Simulation time: 0 hr 1 min 10 sec) 
Heartbeat CPU  0 instructions:   38000001 cycles:   26580063 heartbeat IPC: 1.42406 cumulative IPC: 1.42964 (Simulation time: 0 hr 1 min 11 sec) 
Heartbeat CPU  0 instructions:   39000000 cycles:   27282362 heartbeat IPC: 1.42389 cumulative IPC: 1.42949 (Simulation time: 0 hr 1 min 13 sec) 
Heartbeat CPU  0 instructions:   40000000 cycles:   27984537 heartbeat IPC: 1.42415 cumulative IPC: 1.42936 (Simulation time: 0 hr 1 min 15 sec) 
Heartbeat CPU  0 instructions:   41000000 cycles:   28590557 heartbeat IPC: 1.65011 cumulative IPC: 1.43404 (Simulation time: 0 hr 1 min 17 sec) 
Heartbeat CPU  0 instructions:   42000002 cycles:   29281924 heartbeat IPC: 1.44641 cumulative IPC: 1.43433 (Simulation time: 0 hr 1 min 19 sec) 
Heartbeat CPU  0 instructions:   43000002 cycles:   29984352 heartbeat IPC: 1.42363 cumulative IPC: 1.43408 (Simulation time: 0 hr 1 min 21 sec) 
Heartbeat CPU  0 instructions:   44000000 cycles:   30686793 heartbeat IPC: 1.42360 cumulative IPC: 1.43384 (Simulation time: 0 hr 1 min 23 sec) 
Heartbeat CPU  0 instructions:   45000003 cycles:   31389028 heartbeat IPC: 1.42403 cumulative IPC: 1.43362 (Simulation time: 0 hr 1 min 25 sec) 
Heartbeat CPU  0 instructions:   46000003 cycles:   32091192 heartbeat IPC: 1.42417 cumulative IPC: 1.43342 (Simulation time: 0 hr 1 min 26 sec) 
Heartbeat CPU  0 instructions:   47000000 cycles:   32793356 heartbeat IPC: 1.42416 cumulative IPC: 1.43322 (Simulation time: 0 hr 1 min 28 sec) 
Heartbeat CPU  0 instructions:   48000000 cycles:   33496014 heartbeat IPC: 1.42317 cumulative IPC: 1.43301 (Simulation time: 0 hr 1 min 30 sec) 
Heartbeat CPU  0 instructions:   49000000 cycles:   34198011 heartbeat IPC: 1.42451 cumulative IPC: 1.43283 (Simulation time: 0 hr 1 min 32 sec) 
Heartbeat CPU  0 instructions:   50000000 cycles:   34900355 heartbeat IPC: 1.42380 cumulative IPC: 1.43265 (Simulation time: 0 hr 1 min 34 sec) 
Heartbeat CPU  0 instructions:   51000000 cycles:   35602841 heartbeat IPC: 1.42352 cumulative IPC: 1.43247 (Simulation time: 0 hr 1 min 36 sec) 
Heartbeat CPU  0 instructions:   52000000 cycles:   36304962 heartbeat IPC: 1.42426 cumulative IPC: 1.43231 (Simulation time: 0 hr 1 min 38 sec) 
Heartbeat CPU  0 instructions:   53000000 cycles:   37007350 heartbeat IPC: 1.42371 cumulative IPC: 1.43215 (Simulation time: 0 hr 1 min 40 sec) 
Heartbeat CPU  0 instructions:   54000001 cycles:   37709466 heartbeat IPC: 1.42427 cumulative IPC: 1.43200 (Simulation time: 0 hr 1 min 41 sec) 
Heartbeat CPU  0 instructions:   55000001 cycles:   38411718 heartbeat IPC: 1.42399 cumulative IPC: 1.43185 (Simulation time: 0 hr 1 min 43 sec) 
Heartbeat CPU  0 instructions:   56000000 cycles:   39114181 heartbeat IPC: 1.42356 cumulative IPC: 1.43171 (Simulation time: 0 hr 1 min 45 sec) 
Heartbeat CPU  0 instructions:   57000000 cycles:   39816637 heartbeat IPC: 1.42358 cumulative IPC: 1.43156 (Simulation time: 0 hr 1 min 47 sec) 
Heartbeat CPU  0 instructions:   58000002 cycles:   40518886 heartbeat IPC: 1.42400 cumulative IPC: 1.43143 (Simulation time: 0 hr 1 min 49 sec) 
Heartbeat CPU  0 instructions:   59000000 cycles:   41221034 heartbeat IPC: 1.42420 cumulative IPC: 1.43131 (Simulation time: 0 hr 1 min 51 sec) 
Heartbeat CPU  0 instructions:   60000000 cycles:   41923505 heartbeat IPC: 1.42355 cumulative IPC: 1.43118 (Simulation time: 0 hr 1 min 52 sec) 
Heartbeat CPU  0 instructions:   61000000 cycles:   42625737 heartbeat IPC: 1.42403 cumulative IPC: 1.43106 (Simulation time: 0 hr 1 min 54 sec) 
Heartbeat CPU  0 instructions:   62000002 cycles:   43327899 heartbeat IPC: 1.42418 cumulative IPC: 1.43095 (Simulation time: 0 hr 1 min 56 sec) 
Heartbeat CPU  0 instructions:   63000000 cycles:   43975696 heartbeat IPC: 1.54369 cumulative IPC: 1.43261 (Simulation time: 0 hr 1 min 58 sec) 
Heartbeat CPU  0 instructions:   64000000 cycles:   44627116 heartbeat IPC: 1.53511 cumulative IPC: 1.43411 (Simulation time: 0 hr 2 min 0 sec) 
Heartbeat CPU  0 instructions:   65000000 cycles:   45329184 heartbeat IPC: 1.42436 cumulative IPC: 1.43395 (Simulation time: 0 hr 2 min 1 sec) 
Heartbeat CPU  0 instructions:   66000001 cycles:   46031289 heartbeat IPC: 1.42429 cumulative IPC: 1.43381 (Simulation time: 0 hr 2 min 3 sec) 
Heartbeat CPU  0 instructions:   67000002 cycles:   46733404 heartbeat IPC: 1.42427 cumulative IPC: 1.43366 (Simulation time: 0 hr 2 min 5 sec) 
Heartbeat CPU  0 instructions:   68000000 cycles:   47435790 heartbeat IPC: 1.42372 cumulative IPC: 1.43352 (Simulation time: 0 hr 2 min 7 sec) 
Heartbeat CPU  0 instructions:   69000000 cycles:   48137940 heartbeat IPC: 1.42420 cumulative IPC: 1.43338 (Simulation time: 0 hr 2 min 9 sec) 
Heartbeat CPU  0 instructions:   70000002 cycles:   48840069 heartbeat IPC: 1.42424 cumulative IPC: 1.43325 (Simulation time: 0 hr 2 min 11 sec) 
Heartbeat CPU  0 instructions:   71000003 cycles:   49542686 heartbeat IPC: 1.42325 cumulative IPC: 1.43311 (Simulation time: 0 hr 2 min 12 sec) 
Heartbeat CPU  0 instructions:   72000000 cycles:   50244769 heartbeat IPC: 1.42433 cumulative IPC: 1.43298 (Simulation time: 0 hr 2 min 14 sec) 
Heartbeat CPU  0 instructions:   73000001 cycles:   50946832 heartbeat IPC: 1.42438 cumulative IPC: 1.43287 (Simulation time: 0 hr 2 min 16 sec) 
Heartbeat CPU  0 instructions:   74000003 cycles:   51649212 heartbeat IPC: 1.42373 cumulative IPC: 1.43274 (Simulation time: 0 hr 2 min 18 sec) 
Heartbeat CPU  0 instructions:   75000002 cycles:   52351847 heartbeat IPC: 1.42321 cumulative IPC: 1.43261 (Simulation time: 0 hr 2 min 20 sec) 
Heartbeat CPU  0 instructions:   76000000 cycles:   53054062 heartbeat IPC: 1.42406 cumulative IPC: 1.43250 (Simulation time: 0 hr 2 min 22 sec) 
Heartbeat CPU  0 instructions:   77000003 cycles:   53756668 heartbeat IPC: 1.42328 cumulative IPC: 1.43238 (Simulation time: 0 hr 2 min 23 sec) 
Heartbeat CPU  0 instructions:   78000001 cycles:   54459217 heartbeat IPC: 1.42339 cumulative IPC: 1.43226 (Simulation time: 0 hr 2 min 25 sec) 
Heartbeat CPU  0 instructions:   79000001 cycles:   55161097 heartbeat IPC: 1.42474 cumulative IPC: 1.43217 (Simulation time: 0 hr 2 min 27 sec) 
Heartbeat CPU  0 instructions:   80000000 cycles:   55863087 heartbeat IPC: 1.42452 cumulative IPC: 1.43207 (Simulation time: 0 hr 2 min 29 sec) 
Heartbeat CPU  0 instructions:   81000002 cycles:   56565492 heartbeat IPC: 1.42368 cumulative IPC: 1.43197 (Simulation time: 0 hr 2 min 31 sec) 
Heartbeat CPU  0 instructions:   82000000 cycles:   57267742 heartbeat IPC: 1.42399 cumulative IPC: 1.43187 (Simulation time: 0 hr 2 min 33 sec) 
Heartbeat CPU  0 instructions:   83000001 cycles:   57969989 heartbeat IPC: 1.42400 cumulative IPC: 1.43178 (Simulation time: 0 hr 2 min 34 sec) 
Heartbeat CPU  0 instructions:   84000000 cycles:   58672234 heartbeat IPC: 1.42400 cumulative IPC: 1.43168 (Simulation time: 0 hr 2 min 36 sec) 
Heartbeat CPU  0 instructions:   85000000 cycles:   59360955 heartbeat IPC: 1.45197 cumulative IPC: 1.43192 (Simulation time: 0 hr 2 min 38 sec) 
Heartbeat CPU  0 instructions:   86000002 cycles:   59970941 heartbeat IPC: 1.63939 cumulative IPC: 1.43403 (Simulation time: 0 hr 2 min 40 sec) 
Heartbeat CPU  0 instructions:   87000002 cycles:   60673410 heartbeat IPC: 1.42355 cumulative IPC: 1.43391 (Simulation time: 0 hr 2 min 42 sec) 
Heartbeat CPU  0 instructions:   88000000 cycles:   61376063 heartbeat IPC: 1.42317 cumulative IPC: 1.43378 (Simulation time: 0 hr 2 min 43 sec) 
Heartbeat CPU  0 instructions:   89000001 cycles:   62078110 heartbeat IPC: 1.42441 cumulative IPC: 1.43368 (Simulation time: 0 hr 2 min 45 sec) 
Heartbeat CPU  0 instructions:   90000003 cycles:   62780489 heartbeat IPC: 1.42374 cumulative IPC: 1.43357 (Simulation time: 0 hr 2 min 47 sec) 
Heartbeat CPU  0 instructions:   91000003 cycles:   63482897 heartbeat IPC: 1.42367 cumulative IPC: 1.43346 (Simulation time: 0 hr 2 min 49 sec) 
Heartbeat CPU  0 instructions:   92000000 cycles:   64185161 heartbeat IPC: 1.42396 cumulative IPC: 1.43335 (Simulation time: 0 hr 2 min 51 sec) 
Heartbeat CPU  0 instructions:   93000002 cycles:   64887508 heartbeat IPC: 1.42380 cumulative IPC: 1.43325 (Simulation time: 0 hr 2 min 53 sec) 
Heartbeat CPU  0 instructions:   94000002 cycles:   65589523 heartbeat IPC: 1.42447 cumulative IPC: 1.43316 (Simulation time: 0 hr 2 min 54 sec) 
Heartbeat CPU  0 instructions:   95000003 cycles:   66291747 heartbeat IPC: 1.42405 cumulative IPC: 1.43306 (Simulation time: 0 hr 2 min 56 sec) 
Heartbeat CPU  0 instructions:   96000000 cycles:   66994057 heartbeat IPC: 1.42387 cumulative IPC: 1.43296 (Simulation time: 0 hr 2 min 58 sec) 
Heartbeat CPU  0 instructions:   97000000 cycles:   67696381 heartbeat IPC: 1.42384 cumulative IPC: 1.43287 (Simulation time: 0 hr 3 min 0 sec) 
Heartbeat CPU  0 instructions:   98000002 cycles:   68398563 heartbeat IPC: 1.42414 cumulative IPC: 1.43278 (Simulation time: 0 hr 3 min 2 sec) 
Heartbeat CPU  0 instructions:   99000003 cycles:   69100777 heartbeat IPC: 1.42407 cumulative IPC: 1.43269 (Simulation time: 0 hr 3 min 4 sec) 
Heartbeat CPU  0 instructions:  100000000 cycles:   69803097 heartbeat IPC: 1.42385 cumulative IPC: 1.43260 (Simulation time: 0 hr 3 min 5 sec) 

Warmup complete CPU  0 instructions:  100000001 cycles:   69803117 (Simulation time: 0 hr 3 min 5 sec) 

Heartbeat CPU  0 instructions:  101000000 cycles:   71765907 heartbeat IPC: 0.50947 cumulative IPC: 0.50948 (Simulation time: 0 hr 3 min 7 sec) 
Heartbeat CPU  0 instructions:  102000003 cycles:   73558553 heartbeat IPC: 0.55784 cumulative IPC: 0.53256 (Simulation time: 0 hr 3 min 10 sec) 
Heartbeat CPU  0 instructions:  103000003 cycles:   75461729 heartbeat IPC: 0.52544 cumulative IPC: 0.53017 (Simulation time: 0 hr 3 min 12 sec) 
Heartbeat CPU  0 instructions:  104000000 cycles:   77412890 heartbeat IPC: 0.51251 cumulative IPC: 0.52564 (Simulation time: 0 hr 3 min 14 sec) 
Heartbeat CPU  0 instructions:  105000002 cycles:   79286192 heartbeat IPC: 0.53382 cumulative IPC: 0.52726 (Simulation time: 0 hr 3 min 16 sec) 
Heartbeat CPU  0 instructions:  106000000 cycles:   81119683 heartbeat IPC: 0.54541 cumulative IPC: 0.53020 (Simulation time: 0 hr 3 min 18 sec) 
Heartbeat CPU  0 instructions:  107000003 cycles:   83067851 heartbeat IPC: 0.51330 cumulative IPC: 0.52772 (Simulation time: 0 hr 3 min 20 sec) 
Heartbeat CPU  0 instructions:  108000000 cycles:   93954270 heartbeat IPC: 0.09186 cumulative IPC: 0.33125 (Simulation time: 0 hr 3 min 22 sec) 
Heartbeat CPU  0 instructions:  109000003 cycles:  100849268 heartbeat IPC: 0.14503 cumulative IPC: 0.28989 (Simulation time: 0 hr 3 min 25 sec) 
Heartbeat CPU  0 instructions:  110000001 cycles:  102795575 heartbeat IPC: 0.51379 cumulative IPC: 0.30310 (Simulation time: 0 hr 3 min 27 sec) 
Heartbeat CPU  0 instructions:  111000000 cycles:  104750874 heartbeat IPC: 0.51143 cumulative IPC: 0.31476 (Simulation time: 0 hr 3 min 29 sec) 
Heartbeat CPU  0 instructions:  112000000 cycles:  106554771 heartbeat IPC: 0.55436 cumulative IPC: 0.32652 (Simulation time: 0 hr 3 min 31 sec) 
Heartbeat CPU  0 instructions:  113000000 cycles:  108461014 heartbeat IPC: 0.52459 cumulative IPC: 0.33628 (Simulation time: 0 hr 3 min 33 sec) 
Heartbeat CPU  0 instructions:  114000000 cycles:  110424774 heartbeat IPC: 0.50923 cumulative IPC: 0.34464 (Simulation time: 0 hr 3 min 35 sec) 
Heartbeat CPU  0 instructions:  115000001 cycles:  112295853 heartbeat IPC: 0.53445 cumulative IPC: 0.35300 (Simulation time: 0 hr 3 min 37 sec) 
Heartbeat CPU  0 instructions:  116000000 cycles:  114128576 heartbeat IPC: 0.54564 cumulative IPC: 0.36097 (Simulation time: 0 hr 3 min 39 sec) 
Heartbeat CPU  0 instructions:  117000003 cycles:  116083762 heartbeat IPC: 0.51146 cumulative IPC: 0.36732 (Simulation time: 0 hr 3 min 41 sec) 
Heartbeat CPU  0 instructions:  118000002 cycles:  118023867 heartbeat IPC: 0.51544 cumulative IPC: 0.37328 (Simulation time: 0 hr 3 min 43 sec) 
Heartbeat CPU  0 instructions:  119000002 cycles:  119806161 heartbeat IPC: 0.56107 cumulative IPC: 0.37998 (Simulation time: 0 hr 3 min 45 sec) 
Heartbeat CPU  0 instructions:  120000000 cycles:  121747805 heartbeat IPC: 0.51503 cumulative IPC: 0.38502 (Simulation time: 0 hr 3 min 47 sec) 
Heartbeat CPU  0 instructions:  121000003 cycles:  123700188 heartbeat IPC: 0.51220 cumulative IPC: 0.38963 (Simulation time: 0 hr 3 min 49 sec) 
Heartbeat CPU  0 instructions:  122000000 cycles:  125516122 heartbeat IPC: 0.55068 cumulative IPC: 0.39488 (Simulation time: 0 hr 3 min 52 sec) 
Heartbeat CPU  0 instructions:  123000002 cycles:  127405947 heartbeat IPC: 0.52915 cumulative IPC: 0.39929 (Simulation time: 0 hr 3 min 54 sec) 
Heartbeat CPU  0 instructions:  124000000 cycles:  129362718 heartbeat IPC: 0.51104 cumulative IPC: 0.40296 (Simulation time: 0 hr 3 min 56 sec) 
Heartbeat CPU  0 instructions:  125000000 cycles:  131257742 heartbeat IPC: 0.52770 cumulative IPC: 0.40680 (Simulation time: 0 hr 3 min 58 sec) 
Heartbeat CPU  0 instructions:  126000002 cycles:  133086719 heartbeat IPC: 0.54675 cumulative IPC: 0.41085 (Simulation time: 0 hr 4 min 0 sec) 
Heartbeat CPU  0 instructions:  127000002 cycles:  135159492 heartbeat IPC: 0.48245 cumulative IPC: 0.41312 (Simulation time: 0 hr 4 min 2 sec) 
Heartbeat CPU  0 instructions:  128000000 cycles:  137104659 heartbeat IPC: 0.51409 cumulative IPC: 0.41604 (Simulation time: 0 hr 4 min 4 sec) 
Heartbeat CPU  0 instructions:  129000001 cycles:  138884717 heartbeat IPC: 0.56178 cumulative IPC: 0.41979 (Simulation time: 0 hr 4 min 6 sec) 
Heartbeat CPU  0 instructions:  130000000 cycles:  144484906 heartbeat IPC: 0.17857 cumulative IPC: 0.40170 (Simulation time: 0 hr 4 min 8 sec) 
Heartbeat CPU  0 instructions:  131000003 cycles:  156781923 heartbeat IPC: 0.08132 cumulative IPC: 0.35641 (Simulation time: 0 hr 4 min 11 sec) 
Heartbeat CPU  0 instructions:  132000000 cycles:  158599589 heartbeat IPC: 0.55015 cumulative IPC: 0.36037 (Simulation time: 0 hr 4 min 13 sec) 
Heartbeat CPU  0 instructions:  133000000 cycles:  160490945 heartbeat IPC: 0.52872 cumulative IPC: 0.36389 (Simulation time: 0 hr 4 min 15 sec) 
Heartbeat CPU  0 instructions:  134000000 cycles:  162448759 heartbeat IPC: 0.51077 cumulative IPC: 0.36699 (Simulation time: 0 hr 4 min 17 sec) 
Heartbeat CPU  0 instructions:  135000000 cycles:  164340758 heartbeat IPC: 0.52854 cumulative IPC: 0.37022 (Simulation time: 0 hr 4 min 19 sec) 
Heartbeat CPU  0 instructions:  136000000 cycles:  166157972 heartbeat IPC: 0.55029 cumulative IPC: 0.37362 (Simulation time: 0 hr 4 min 21 sec) 
Heartbeat CPU  0 instructions:  137000002 cycles:  168113331 heartbeat IPC: 0.51142 cumulative IPC: 0.37636 (Simulation time: 0 hr 4 min 23 sec) 
Heartbeat CPU  0 instructions:  138000000 cycles:  170058581 heartbeat IPC: 0.51407 cumulative IPC: 0.37903 (Simulation time: 0 hr 4 min 26 sec) 
Heartbeat CPU  0 instructions:  139000001 cycles:  171838252 heartbeat IPC: 0.56190 cumulative IPC: 0.38222 (Simulation time: 0 hr 4 min 28 sec) 
Heartbeat CPU  0 instructions:  140000000 cycles:  173781824 heartbeat IPC: 0.51452 cumulative IPC: 0.38469 (Simulation time: 0 hr 4 min 30 sec) 
Heartbeat CPU  0 instructions:  141000000 cycles:  175737355 heartbeat IPC: 0.51137 cumulative IPC: 0.38703 (Simulation time: 0 hr 4 min 32 sec) 
Heartbeat CPU  0 instructions:  142000001 cycles:  177569353 heartbeat IPC: 0.54585 cumulative IPC: 0.38973 (Simulation time: 0 hr 4 min 34 sec) 
Heartbeat CPU  0 instructions:  143000001 cycles:  179442798 heartbeat IPC: 0.53378 cumulative IPC: 0.39219 (Simulation time: 0 hr 4 min 36 sec) 
Heartbeat CPU  0 instructions:  144000000 cycles:  181401073 heartbeat IPC: 0.51065 cumulative IPC: 0.39427 (Simulation time: 0 hr 4 min 38 sec) 
Heartbeat CPU  0 instructions:  145000000 cycles:  183311946 heartbeat IPC: 0.52332 cumulative IPC: 0.39644 (Simulation time: 0 hr 4 min 40 sec) 
Heartbeat CPU  0 instructions:  146000002 cycles:  185115757 heartbeat IPC: 0.55438 cumulative IPC: 0.39892 (Simulation time: 0 hr 4 min 42 sec) 
Heartbeat CPU  0 instructions:  147000003 cycles:  187068406 heartbeat IPC: 0.51213 cumulative IPC: 0.40080 (Simulation time: 0 hr 4 min 44 sec) 
Heartbeat CPU  0 instructions:  148000000 cycles:  189015117 heartbeat IPC: 0.51369 cumulative IPC: 0.40264 (Simulation time: 0 hr 4 min 46 sec) 
Heartbeat CPU  0 instructions:  149000002 cycles:  190802275 heartbeat IPC: 0.55955 cumulative IPC: 0.40496 (Simulation time: 0 hr 4 min 49 sec) 
Heartbeat CPU  0 instructions:  150000003 cycles:  192732864 heartbeat IPC: 0.51798 cumulative IPC: 0.40674 (Simulation time: 0 hr 4 min 51 sec) 
Heartbeat CPU  0 instructions:  151000003 cycles:  194684280 heartbeat IPC: 0.51245 cumulative IPC: 0.40839 (Simulation time: 0 hr 4 min 53 sec) 
Heartbeat CPU  0 instructions:  152000000 cycles:  196546116 heartbeat IPC: 0.53710 cumulative IPC: 0.41028 (Simulation time: 0 hr 4 min 55 sec) 
Heartbeat CPU  0 instructions:  153000003 cycles:  209546078 heartbeat IPC: 0.07692 cumulative IPC: 0.37927 (Simulation time: 0 hr 4 min 58 sec) 
Heartbeat CPU  0 instructions:  154000000 cycles:  214596511 heartbeat IPC: 0.19800 cumulative IPC: 0.37295 (Simulation time: 0 hr 5 min 0 sec) 
Heartbeat CPU  0 instructions:  155000000 cycles:  216506394 heartbeat IPC: 0.52359 cumulative IPC: 0.37491 (Simulation time: 0 hr 5 min 2 sec) 
Heartbeat CPU  0 instructions:  156000000 cycles:  218306347 heartbeat IPC: 0.55557 cumulative IPC: 0.37710 (Simulation time: 0 hr 5 min 4 sec) 
Heartbeat CPU  0 instructions:  157000001 cycles:  220258601 heartbeat IPC: 0.51223 cumulative IPC: 0.37885 (Simulation time: 0 hr 5 min 6 sec) 
Heartbeat CPU  0 instructions:  158000001 cycles:  222207175 heartbeat IPC: 0.51320 cumulative IPC: 0.38057 (Simulation time: 0 hr 5 min 8 sec) 
Heartbeat CPU  0 instructions:  159000000 cycles:  223991357 heartbeat IPC: 0.56048 cumulative IPC: 0.38265 (Simulation time: 0 hr 5 min 10 sec) 
Heartbeat CPU  0 instructions:  160000000 cycles:  225925222 heartbeat IPC: 0.51710 cumulative IPC: 0.38431 (Simulation time: 0 hr 5 min 12 sec) 
Heartbeat CPU  0 instructions:  161000003 cycles:  227882366 heartbeat IPC: 0.51095 cumulative IPC: 0.38588 (Simulation time: 0 hr 5 min 15 sec) 
Heartbeat CPU  0 instructions:  162000000 cycles:  229731788 heartbeat IPC: 0.54071 cumulative IPC: 0.38767 (Simulation time: 0 hr 5 min 17 sec) 
Heartbeat CPU  0 instructions:  163000003 cycles:  231589664 heartbeat IPC: 0.53825 cumulative IPC: 0.38940 (Simulation time: 0 hr 5 min 19 sec) 
Heartbeat CPU  0 instructions:  164000000 cycles:  233542528 heartbeat IPC: 0.51207 cumulative IPC: 0.39086 (Simulation time: 0 hr 5 min 21 sec) 
Heartbeat CPU  0 instructions:  165000000 cycles:  235477542 heartbeat IPC: 0.51679 cumulative IPC: 0.39234 (Simulation time: 0 hr 5 min 23 sec) 
Heartbeat CPU  0 instructions:  166000001 cycles:  237260348 heartbeat IPC: 0.56091 cumulative IPC: 0.39413 (Simulation time: 0 hr 5 min 25 sec) 
Heartbeat CPU  0 instructions:  167000000 cycles:  239210343 heartbeat IPC: 0.51282 cumulative IPC: 0.39550 (Simulation time: 0 hr 5 min 27 sec) 
Heartbeat CPU  0 instructions:  168000000 cycles:  241161437 heartbeat IPC: 0.51253 cumulative IPC: 0.39683 (Simulation time: 0 hr 5 min 29 sec) 
Heartbeat CPU  0 instructions:  169000001 cycles:  242956381 heartbeat IPC: 0.55712 cumulative IPC: 0.39849 (Simulation time: 0 hr 5 min 32 sec) 
Heartbeat CPU  0 instructions:  170000002 cycles:  244871406 heartbeat IPC: 0.52219 cumulative IPC: 0.39984 (Simulation time: 0 hr 5 min 34 sec) 
Heartbeat CPU  0 instructions:  171000001 cycles:  246829014 heartbeat IPC: 0.51083 cumulative IPC: 0.40107 (Simulation time: 0 hr 5 min 36 sec) 
Heartbeat CPU  0 instructions:  172000000 cycles:  248698012 heartbeat IPC: 0.53505 cumulative IPC: 0.40247 (Simulation time: 0 hr 5 min 38 sec) 
Heartbeat CPU  0 instructions:  173000000 cycles:  250539668 heartbeat IPC: 0.54299 cumulative IPC: 0.40390 (Simulation time: 0 hr 5 min 40 sec) 
Heartbeat CPU  0 instructions:  174000003 cycles:  252495706 heartbeat IPC: 0.51124 cumulative IPC: 0.40505 (Simulation time: 0 hr 5 min 42 sec) 
Heartbeat CPU  0 instructions:  175000000 cycles:  259783135 heartbeat IPC: 0.13722 cumulative IPC: 0.39478 (Simulation time: 0 hr 5 min 44 sec) 
Heartbeat CPU  0 instructions:  176000000 cycles:  270237786 heartbeat IPC: 0.09565 cumulative IPC: 0.37918 (Simulation time: 0 hr 5 min 47 sec) 
Heartbeat CPU  0 instructions:  177000001 cycles:  272258185 heartbeat IPC: 0.49495 cumulative IPC: 0.38033 (Simulation time: 0 hr 5 min 49 sec) 
Heartbeat CPU  0 instructions:  178000003 cycles:  274362216 heartbeat IPC: 0.47528 cumulative IPC: 0.38131 (Simulation time: 0 hr 5 min 51 sec) 
Heartbeat CPU  0 instructions:  179000002 cycles:  276324852 heartbeat IPC: 0.50952 cumulative IPC: 0.38253 (Simulation time: 0 hr 5 min 53 sec) 
Heartbeat CPU  0 instructions:  180000000 cycles:  278267265 heartbeat IPC: 0.51482 cumulative IPC: 0.38376 (Simulation time: 0 hr 5 min 55 sec) 
Heartbeat CPU  0 instructions:  181000003 cycles:  280237401 heartbeat IPC: 0.50758 cumulative IPC: 0.38492 (Simulation time: 0 hr 5 min 57 sec) 
Heartbeat CPU  0 instructions:  182000003 cycles:  282122624 heartbeat IPC: 0.53044 cumulative IPC: 0.38621 (Simulation time: 0 hr 5 min 59 sec) 
Heartbeat CPU  0 instructions:  183000000 cycles:  283991102 heartbeat IPC: 0.53519 cumulative IPC: 0.38751 (Simulation time: 0 hr 6 min 2 sec) 
Heartbeat CPU  0 instructions:  184000000 cycles:  285959463 heartbeat IPC: 0.50804 cumulative IPC: 0.38861 (Simulation time: 0 hr 6 min 4 sec) 
Heartbeat CPU  0 instructions:  185000002 cycles:  287916608 heartbeat IPC: 0.51095 cumulative IPC: 0.38971 (Simulation time: 0 hr 6 min 6 sec) 
Heartbeat CPU  0 instructions:  186000001 cycles:  289733814 heartbeat IPC: 0.55029 cumulative IPC: 0.39103 (Simulation time: 0 hr 6 min 8 sec) 
Heartbeat CPU  0 instructions:  187000000 cycles:  291690449 heartbeat IPC: 0.51108 cumulative IPC: 0.39209 (Simulation time: 0 hr 6 min 10 sec) 
Heartbeat CPU  0 instructions:  188000000 cycles:  293659015 heartbeat IPC: 0.50798 cumulative IPC: 0.39311 (Simulation time: 0 hr 6 min 12 sec) 
Heartbeat CPU  0 instructions:  189000000 cycles:  295488153 heartbeat IPC: 0.54671 cumulative IPC: 0.39435 (Simulation time: 0 hr 6 min 14 sec) 
Heartbeat CPU  0 instructions:  190000000 cycles:  297414728 heartbeat IPC: 0.51906 cumulative IPC: 0.39541 (Simulation time: 0 hr 6 min 16 sec) 
Heartbeat CPU  0 instructions:  191000000 cycles:  299385277 heartbeat IPC: 0.50747 cumulative IPC: 0.39637 (Simulation time: 0 hr 6 min 18 sec) 
Heartbeat CPU  0 instructions:  192000000 cycles:  301284712 heartbeat IPC: 0.52647 cumulative IPC: 0.39744 (Simulation time: 0 hr 6 min 20 sec) 
Heartbeat CPU  0 instructions:  193000001 cycles:  303138185 heartbeat IPC: 0.53953 cumulative IPC: 0.39857 (Simulation time: 0 hr 6 min 23 sec) 
Heartbeat CPU  0 instructions:  194000000 cycles:  305109816 heartbeat IPC: 0.50719 cumulative IPC: 0.39948 (Simulation time: 0 hr 6 min 25 sec) 
Heartbeat CPU  0 instructions:  195000002 cycles:  307066225 heartbeat IPC: 0.51114 cumulative IPC: 0.40040 (Simulation time: 0 hr 6 min 27 sec) 
Heartbeat CPU  0 instructions:  196000000 cycles:  308878786 heartbeat IPC: 0.55170 cumulative IPC: 0.40155 (Simulation time: 0 hr 6 min 29 sec) 
Heartbeat CPU  0 instructions:  197000000 cycles:  310946731 heartbeat IPC: 0.48357 cumulative IPC: 0.40225 (Simulation time: 0 hr 6 min 31 sec) 
Heartbeat CPU  0 instructions:  198000003 cycles:  325460510 heartbeat IPC: 0.06890 cumulative IPC: 0.38333 (Simulation time: 0 hr 6 min 34 sec) 
Heartbeat CPU  0 instructions:  199000001 cycles:  328652487 heartbeat IPC: 0.31328 cumulative IPC: 0.38246 (Simulation time: 0 hr 6 min 36 sec) 
Heartbeat CPU  0 instructions:  200000000 cycles:  330582443 heartbeat IPC: 0.51815 cumulative IPC: 0.38347 (Simulation time: 0 hr 6 min 38 sec) 
Finished CPU 0 instructions: 100000000 cycles: 260779354 cumulative IPC: 0.38347 (Simulation time: 0 hr 6 min 38 sec) 

ChampSim completed all CPUs

[ROI Statistics]
Core_0_instructions 100000000
Core_0_cycles 260779354
Core_0_IPC 0.38347

Core_0_branch_prediction_accuracy 99.16976
Core_0_branch_MPKI 0.01138
Core_0_average_ROB_occupancy_at_mispredict 253.38840

Core_0_L1D_total_access 50884572
Core_0_L1D_total_hit 50061867
Core_0_L1D_total_miss 822705
Core_0_L1D_loads 34195307
Core_0_L1D_load_hit 33536843
Core_0_L1D_load_miss 658464
Core_0_L1D_RFOs 16689265
Core_0_L1D_RFO_hit 16525024
Core_0_L1D_RFO_miss 164241
Core_0_L1D_prefetches 0
Core_0_L1D_prefetch_hit 0
Core_0_L1D_prefetch_miss 0
Core_0_L1D_writebacks 0
Core_0_L1D_writeback_hit 0
Core_0_L1D_writeback_miss 0
Core_0_L1D_prefetch_requested 0
Core_0_L1D_prefetch_issued 0
Core_0_L1D_prefetch_useful 0
Core_0_L1D_prefetch_useless 0
Core_0_L1D_prefetch_late 0
Core_0_L1D_average_miss_latency 126.17829

Core_0_L1I_total_access 26775600
Core_0_L1I_total_hit 26775600
Core_0_L1I_total_miss 0
Core_0_L1I_loads 26775600
Core_0_L1I_load_hit 26775600
Core_0_L1I_load_miss 0
Core_0_L1I_RFOs 0
Core_0_L1I_RFO_hit 0
Core_0_L1I_RFO_miss 0
Core_0_L1I_prefetches 0
Core_0_L1I_prefetch_hit 0
Core_0_L1I_prefetch_miss 0
Core_0_L1I_writebacks 0
Core_0_L1I_writeback_hit 0
Core_0_L1I_writeback_miss 0
Core_0_L1I_prefetch_requested 0
Core_0_L1I_prefetch_issued 0
Core_0_L1I_prefetch_useful 0
Core_0_L1I_prefetch_useless 0
Core_0_L1I_prefetch_late 0
Core_0_L1I_average_miss_latency -nan

Core_0_L2C_total_access 993840
Core_0_L2C_total_hit 450961
Core_0_L2C_total_miss 542879
Core_0_L2C_loads 658463
Core_0_L2C_load_hit 279999
Core_0_L2C_load_miss 378464
Core_0_L2C_RFOs 164241
Core_0_L2C_RFO_hit 16
Core_0_L2C_RFO_miss 164225
Core_0_L2C_prefetches 0
Core_0_L2C_prefetch_hit 0
Core_0_L2C_prefetch_miss 0
Core_0_L2C_writebacks 171136
Core_0_L2C_writeback_hit 170946
Core_0_L2C_writeback_miss 190
Core_0_L2C_prefetch_requested 0
Core_0_L2C_prefetch_issued 0
Core_0_L2C_prefetch_useful 0
Core_0_L2C_prefetch_useless 0
Core_0_L2C_prefetch_late 0
Core_0_L2C_average_miss_latency 133.96534

Core_0_LLC_total_access 1078559
Core_0_LLC_total_hit 520411
Core_0_LLC_total_miss 558148
Core_0_LLC_loads 378464
Core_0_LLC_load_hit 371531
Core_0_LLC_load_miss 6933
Core_0_LLC_RFOs 164225
Core_0_LLC_RFO_hit 1000
Core_0_LLC_RFO_miss 163225
Core_0_LLC_prefetches 371991
Core_0_LLC_prefetch_hit 171
Core_0_LLC_prefetch_miss 371820
Core_0_LLC_writebacks 163879
Core_0_LLC_writeback_hit 147709
Core_0_LLC_writeback_miss 16170
Core_0_LLC_prefetch_requested 736928
Core_0_LLC_prefetch_issued 725409
Core_0_LLC_prefetch_useful 723617
Core_0_LLC_prefetch_useless 614
Core_0_LLC_prefetch_late 523
Core_0_LLC_average_miss_latency 221.73858

Core_0_major_page_fault 0
Core_0_minor_page_fault 8761

LLC Next Line Prefetcher Final Stats: none
Channel_0_RQ_row_buffer_hit 133775
Channel_0_RQ_row_buffer_miss 408203
Channel_0_WQ_row_buffer_hit 18793
Channel_0_WQ_row_buffer_miss 139914
Channel_0_WQ_full 0
Channel_0_dbus_congested 164217

avg_congested_cycle 10
