*************************************************
   ChampSim Multicore Out-of-Order Simulator
   Last compiled: Dec 23 2023 14:16:25
*************************************************

trace_0 ./test_trace/437.leslie3d-134B.champsimtrace.xz
CPU 0 L2C next line prefetcher
LLC Next Line Prefetcher
warmup_instructions 100000000
simulation_instructions 100000000
champsim_seed 218

num_cpus 1
cpu_freq 4000
dram_io_freq 2400
page_size 4096
block_size 64
max_read_per_cycle 8
max_fill_per_cycle 1
dram_channels 1
dram_ranks 1
dram_banks 8
dram_rows 65536
dram_columns 128
dram_row_size 8
dram_size 4096
dram_pages 1048576

fetch_width 6
decode_width 6
exec_width 4
lq_width 2
sq_width 2
retire_width 4
scheduler_size 128
branch_mispredict_penalty 20
rob_size 256
lq_size 72
sq_size 56
num_instr_destinations_sparc 4
num_instr_destinations 2
num_instr_sources 4

itlb_set 16
itlb_way 8
itlb_rq_size 16
itlb_wq_size 16
itlb_pq_size 0
itlb_mshr_size 8
itlb_latency 1

dtlb_set 16
dtlb_way 4
dtlb_rq_size 16
dtlb_wq_size 16
dtlb_pq_size 0
dtlb_mshr_size 8
dtlb_latency 1

stlb_set 128
stlb_way 12
stlb_rq_size 32
stlb_wq_size 32
stlb_pq_size 0
stlb_mshr_size 16
stlb_latency 8

l1i_size 32
l1i_set 64
l1i_way 8
l1i_rq_size 64
l1i_wq_size 64
l1i_pq_size 8
l1i_mshr_size 8
l1i_latency 1

l1d_size 32
l1d_set 64
l1d_way 8
l1d_rq_size 64
l1d_wq_size 64
l1d_pq_size 8
l1d_mshr_size 16
l1d_latency 4

l2c_size 512
l2c_set 1024
l2c_way 8
l2c_rq_size 32
l2c_wq_size 32
l2c_pq_size 16
l2c_mshr_size 32
l2c_latency 10

llc_size 2048
llc_set 2048
llc_way 16
llc_rq_size 32
llc_wq_size 32
llc_pq_size 32
llc_mshr_size 64
llc_latency 20

dram_channel_width 8
dram_wq_size 64
dram_rq_size 64
tRP 15
tRCD 15
tCAS 12.5
dram_dbus_turn_around_time 30
dram_write_high_wm 56
dram_write_low_wm 48
min_dram_writes_per_switch 16
dram_mtps 2400
dram_dbus_return_time 13


Heartbeat CPU  0 instructions:    1000002 cycles:     502313 heartbeat IPC: 1.99079 cumulative IPC: 1.99079 (Simulation time: 0 hr 0 min 1 sec) 
Heartbeat CPU  0 instructions:    2000001 cycles:     993826 heartbeat IPC: 2.03453 cumulative IPC: 2.01243 (Simulation time: 0 hr 0 min 3 sec) 
Heartbeat CPU  0 instructions:    3000001 cycles:    1490538 heartbeat IPC: 2.01324 cumulative IPC: 2.01270 (Simulation time: 0 hr 0 min 4 sec) 
Heartbeat CPU  0 instructions:    4000000 cycles:    1992304 heartbeat IPC: 1.99296 cumulative IPC: 2.00773 (Simulation time: 0 hr 0 min 5 sec) 
Heartbeat CPU  0 instructions:    5000000 cycles:    2494325 heartbeat IPC: 1.99195 cumulative IPC: 2.00455 (Simulation time: 0 hr 0 min 6 sec) 
Heartbeat CPU  0 instructions:    6000001 cycles:    2996180 heartbeat IPC: 1.99261 cumulative IPC: 2.00255 (Simulation time: 0 hr 0 min 8 sec) 
Heartbeat CPU  0 instructions:    7000000 cycles:    3482937 heartbeat IPC: 2.05441 cumulative IPC: 2.00980 (Simulation time: 0 hr 0 min 9 sec) 
Heartbeat CPU  0 instructions:    8000000 cycles:    3984641 heartbeat IPC: 1.99321 cumulative IPC: 2.00771 (Simulation time: 0 hr 0 min 10 sec) 
Heartbeat CPU  0 instructions:    9000001 cycles:    4485788 heartbeat IPC: 1.99542 cumulative IPC: 2.00634 (Simulation time: 0 hr 0 min 12 sec) 
Heartbeat CPU  0 instructions:   10000000 cycles:    4987781 heartbeat IPC: 1.99206 cumulative IPC: 2.00490 (Simulation time: 0 hr 0 min 13 sec) 
Heartbeat CPU  0 instructions:   11000001 cycles:    5481692 heartbeat IPC: 2.02466 cumulative IPC: 2.00668 (Simulation time: 0 hr 0 min 14 sec) 
Heartbeat CPU  0 instructions:   12000000 cycles:    5976512 heartbeat IPC: 2.02093 cumulative IPC: 2.00786 (Simulation time: 0 hr 0 min 16 sec) 
Heartbeat CPU  0 instructions:   13000003 cycles:    6478074 heartbeat IPC: 1.99378 cumulative IPC: 2.00677 (Simulation time: 0 hr 0 min 17 sec) 
Heartbeat CPU  0 instructions:   14000001 cycles:    6979637 heartbeat IPC: 1.99376 cumulative IPC: 2.00584 (Simulation time: 0 hr 0 min 18 sec) 
Heartbeat CPU  0 instructions:   15000003 cycles:    7481347 heartbeat IPC: 1.99319 cumulative IPC: 2.00499 (Simulation time: 0 hr 0 min 20 sec) 
Heartbeat CPU  0 instructions:   16000000 cycles:    7968469 heartbeat IPC: 2.05287 cumulative IPC: 2.00791 (Simulation time: 0 hr 0 min 21 sec) 
Heartbeat CPU  0 instructions:   17000001 cycles:    8470208 heartbeat IPC: 1.99307 cumulative IPC: 2.00703 (Simulation time: 0 hr 0 min 22 sec) 
Heartbeat CPU  0 instructions:   18000001 cycles:    8971569 heartbeat IPC: 1.99457 cumulative IPC: 2.00634 (Simulation time: 0 hr 0 min 23 sec) 
Heartbeat CPU  0 instructions:   19000003 cycles:    9472695 heartbeat IPC: 1.99551 cumulative IPC: 2.00577 (Simulation time: 0 hr 0 min 25 sec) 
Heartbeat CPU  0 instructions:   20000000 cycles:    9969496 heartbeat IPC: 2.01287 cumulative IPC: 2.00612 (Simulation time: 0 hr 0 min 26 sec) 
Heartbeat CPU  0 instructions:   21000001 cycles:   10461513 heartbeat IPC: 2.03245 cumulative IPC: 2.00736 (Simulation time: 0 hr 0 min 27 sec) 
Heartbeat CPU  0 instructions:   22000003 cycles:   10963491 heartbeat IPC: 1.99212 cumulative IPC: 2.00666 (Simulation time: 0 hr 0 min 29 sec) 
Heartbeat CPU  0 instructions:   23000001 cycles:   11465659 heartbeat IPC: 1.99136 cumulative IPC: 2.00599 (Simulation time: 0 hr 0 min 30 sec) 
Heartbeat CPU  0 instructions:   24000000 cycles:   11967123 heartbeat IPC: 1.99416 cumulative IPC: 2.00549 (Simulation time: 0 hr 0 min 31 sec) 
Heartbeat CPU  0 instructions:   25000003 cycles:   12453741 heartbeat IPC: 2.05501 cumulative IPC: 2.00743 (Simulation time: 0 hr 0 min 33 sec) 
Heartbeat CPU  0 instructions:   26000001 cycles:   12955680 heartbeat IPC: 1.99227 cumulative IPC: 2.00684 (Simulation time: 0 hr 0 min 34 sec) 
Heartbeat CPU  0 instructions:   27000003 cycles:   13457833 heartbeat IPC: 1.99143 cumulative IPC: 2.00627 (Simulation time: 0 hr 0 min 35 sec) 
Heartbeat CPU  0 instructions:   28000000 cycles:   13959739 heartbeat IPC: 1.99240 cumulative IPC: 2.00577 (Simulation time: 0 hr 0 min 37 sec) 
Heartbeat CPU  0 instructions:   29000002 cycles:   14457170 heartbeat IPC: 2.01033 cumulative IPC: 2.00593 (Simulation time: 0 hr 0 min 38 sec) 
Heartbeat CPU  0 instructions:   30000000 cycles:   14947686 heartbeat IPC: 2.03867 cumulative IPC: 2.00700 (Simulation time: 0 hr 0 min 39 sec) 
Heartbeat CPU  0 instructions:   31000002 cycles:   15449528 heartbeat IPC: 1.99266 cumulative IPC: 2.00653 (Simulation time: 0 hr 0 min 40 sec) 
Heartbeat CPU  0 instructions:   32000000 cycles:   15951017 heartbeat IPC: 1.99406 cumulative IPC: 2.00614 (Simulation time: 0 hr 0 min 42 sec) 
Heartbeat CPU  0 instructions:   33000001 cycles:   16453011 heartbeat IPC: 1.99206 cumulative IPC: 2.00571 (Simulation time: 0 hr 0 min 43 sec) 
Heartbeat CPU  0 instructions:   34000003 cycles:   16941425 heartbeat IPC: 2.04745 cumulative IPC: 2.00692 (Simulation time: 0 hr 0 min 44 sec) 
Heartbeat CPU  0 instructions:   35000000 cycles:   17440930 heartbeat IPC: 2.00198 cumulative IPC: 2.00677 (Simulation time: 0 hr 0 min 46 sec) 
Heartbeat CPU  0 instructions:   36000000 cycles:   17942415 heartbeat IPC: 1.99408 cumulative IPC: 2.00642 (Simulation time: 0 hr 0 min 47 sec) 
Heartbeat CPU  0 instructions:   37000003 cycles:   18444227 heartbeat IPC: 1.99278 cumulative IPC: 2.00605 (Simulation time: 0 hr 0 min 48 sec) 
Heartbeat CPU  0 instructions:   38000003 cycles:   18944969 heartbeat IPC: 1.99704 cumulative IPC: 2.00581 (Simulation time: 0 hr 0 min 50 sec) 
Heartbeat CPU  0 instructions:   39000003 cycles:   19432215 heartbeat IPC: 2.05235 cumulative IPC: 2.00698 (Simulation time: 0 hr 0 min 51 sec) 
Heartbeat CPU  0 instructions:   40000000 cycles:   19933453 heartbeat IPC: 1.99505 cumulative IPC: 2.00668 (Simulation time: 0 hr 0 min 52 sec) 
Heartbeat CPU  0 instructions:   41000001 cycles:   20435507 heartbeat IPC: 1.99182 cumulative IPC: 2.00631 (Simulation time: 0 hr 0 min 54 sec) 
Heartbeat CPU  0 instructions:   42000002 cycles:   20937546 heartbeat IPC: 1.99188 cumulative IPC: 2.00597 (Simulation time: 0 hr 0 min 55 sec) 
Heartbeat CPU  0 instructions:   43000003 cycles:   21428982 heartbeat IPC: 2.03485 cumulative IPC: 2.00663 (Simulation time: 0 hr 0 min 56 sec) 
Heartbeat CPU  0 instructions:   44000000 cycles:   21925825 heartbeat IPC: 2.01270 cumulative IPC: 2.00677 (Simulation time: 0 hr 0 min 58 sec) 
Heartbeat CPU  0 instructions:   45000001 cycles:   22427738 heartbeat IPC: 1.99238 cumulative IPC: 2.00644 (Simulation time: 0 hr 0 min 59 sec) 
Heartbeat CPU  0 instructions:   46000000 cycles:   22929348 heartbeat IPC: 1.99358 cumulative IPC: 2.00616 (Simulation time: 0 hr 1 min 0 sec) 
Heartbeat CPU  0 instructions:   47000002 cycles:   23431385 heartbeat IPC: 1.99189 cumulative IPC: 2.00586 (Simulation time: 0 hr 1 min 2 sec) 
Heartbeat CPU  0 instructions:   48000000 cycles:   23917934 heartbeat IPC: 2.05529 cumulative IPC: 2.00686 (Simulation time: 0 hr 1 min 3 sec) 
Heartbeat CPU  0 instructions:   49000002 cycles:   24419767 heartbeat IPC: 1.99270 cumulative IPC: 2.00657 (Simulation time: 0 hr 1 min 4 sec) 
Heartbeat CPU  0 instructions:   50000003 cycles:   24921102 heartbeat IPC: 1.99468 cumulative IPC: 2.00633 (Simulation time: 0 hr 1 min 6 sec) 
Heartbeat CPU  0 instructions:   51000003 cycles:   25422665 heartbeat IPC: 1.99377 cumulative IPC: 2.00608 (Simulation time: 0 hr 1 min 7 sec) 
Heartbeat CPU  0 instructions:   52000000 cycles:   25916236 heartbeat IPC: 2.02604 cumulative IPC: 2.00646 (Simulation time: 0 hr 1 min 8 sec) 
Heartbeat CPU  0 instructions:   53000001 cycles:   26411273 heartbeat IPC: 2.02005 cumulative IPC: 2.00672 (Simulation time: 0 hr 1 min 10 sec) 
Heartbeat CPU  0 instructions:   54000003 cycles:   26912955 heartbeat IPC: 1.99330 cumulative IPC: 2.00647 (Simulation time: 0 hr 1 min 11 sec) 
Heartbeat CPU  0 instructions:   55000003 cycles:   27414484 heartbeat IPC: 1.99390 cumulative IPC: 2.00624 (Simulation time: 0 hr 1 min 12 sec) 
Heartbeat CPU  0 instructions:   56000000 cycles:   27915911 heartbeat IPC: 1.99430 cumulative IPC: 2.00602 (Simulation time: 0 hr 1 min 14 sec) 
Heartbeat CPU  0 instructions:   57000002 cycles:   28402920 heartbeat IPC: 2.05335 cumulative IPC: 2.00684 (Simulation time: 0 hr 1 min 15 sec) 
Heartbeat CPU  0 instructions:   58000003 cycles:   28904610 heartbeat IPC: 1.99326 cumulative IPC: 2.00660 (Simulation time: 0 hr 1 min 16 sec) 
Heartbeat CPU  0 instructions:   59000001 cycles:   29406288 heartbeat IPC: 1.99331 cumulative IPC: 2.00637 (Simulation time: 0 hr 1 min 18 sec) 
Heartbeat CPU  0 instructions:   60000000 cycles:   29907340 heartbeat IPC: 1.99580 cumulative IPC: 2.00620 (Simulation time: 0 hr 1 min 19 sec) 
Heartbeat CPU  0 instructions:   61000000 cycles:   30403292 heartbeat IPC: 2.01632 cumulative IPC: 2.00636 (Simulation time: 0 hr 1 min 20 sec) 
Heartbeat CPU  0 instructions:   62000001 cycles:   30895747 heartbeat IPC: 2.03064 cumulative IPC: 2.00675 (Simulation time: 0 hr 1 min 22 sec) 
Heartbeat CPU  0 instructions:   63000001 cycles:   31397640 heartbeat IPC: 1.99246 cumulative IPC: 2.00652 (Simulation time: 0 hr 1 min 23 sec) 
Heartbeat CPU  0 instructions:   64000000 cycles:   31899831 heartbeat IPC: 1.99127 cumulative IPC: 2.00628 (Simulation time: 0 hr 1 min 24 sec) 
Heartbeat CPU  0 instructions:   65000000 cycles:   32401427 heartbeat IPC: 1.99364 cumulative IPC: 2.00608 (Simulation time: 0 hr 1 min 26 sec) 
Heartbeat CPU  0 instructions:   66000003 cycles:   32887645 heartbeat IPC: 2.05670 cumulative IPC: 2.00683 (Simulation time: 0 hr 1 min 27 sec) 
Heartbeat CPU  0 instructions:   67000000 cycles:   33389735 heartbeat IPC: 1.99167 cumulative IPC: 2.00660 (Simulation time: 0 hr 1 min 28 sec) 
Heartbeat CPU  0 instructions:   68000000 cycles:   33891674 heartbeat IPC: 1.99227 cumulative IPC: 2.00639 (Simulation time: 0 hr 1 min 30 sec) 
Heartbeat CPU  0 instructions:   69000001 cycles:   34393844 heartbeat IPC: 1.99136 cumulative IPC: 2.00617 (Simulation time: 0 hr 1 min 31 sec) 
Heartbeat CPU  0 instructions:   70000000 cycles:   34890985 heartbeat IPC: 2.01150 cumulative IPC: 2.00625 (Simulation time: 0 hr 1 min 32 sec) 
Heartbeat CPU  0 instructions:   71000001 cycles:   35381405 heartbeat IPC: 2.03907 cumulative IPC: 2.00670 (Simulation time: 0 hr 1 min 34 sec) 
Heartbeat CPU  0 instructions:   72000000 cycles:   35883623 heartbeat IPC: 1.99117 cumulative IPC: 2.00649 (Simulation time: 0 hr 1 min 35 sec) 
Heartbeat CPU  0 instructions:   73000002 cycles:   36384973 heartbeat IPC: 1.99462 cumulative IPC: 2.00632 (Simulation time: 0 hr 1 min 37 sec) 
Heartbeat CPU  0 instructions:   74000003 cycles:   36886845 heartbeat IPC: 1.99254 cumulative IPC: 2.00614 (Simulation time: 0 hr 1 min 38 sec) 
Heartbeat CPU  0 instructions:   75000001 cycles:   37375382 heartbeat IPC: 2.04692 cumulative IPC: 2.00667 (Simulation time: 0 hr 1 min 39 sec) 
Heartbeat CPU  0 instructions:   76000000 cycles:   37874799 heartbeat IPC: 2.00233 cumulative IPC: 2.00661 (Simulation time: 0 hr 1 min 41 sec) 
Heartbeat CPU  0 instructions:   77000000 cycles:   38376745 heartbeat IPC: 1.99225 cumulative IPC: 2.00642 (Simulation time: 0 hr 1 min 42 sec) 
Heartbeat CPU  0 instructions:   78000003 cycles:   38878374 heartbeat IPC: 1.99351 cumulative IPC: 2.00626 (Simulation time: 0 hr 1 min 43 sec) 
Heartbeat CPU  0 instructions:   79000001 cycles:   39378745 heartbeat IPC: 1.99851 cumulative IPC: 2.00616 (Simulation time: 0 hr 1 min 45 sec) 
Heartbeat CPU  0 instructions:   80000000 cycles:   39867270 heartbeat IPC: 2.04698 cumulative IPC: 2.00666 (Simulation time: 0 hr 1 min 46 sec) 
Heartbeat CPU  0 instructions:   81000003 cycles:   40368230 heartbeat IPC: 1.99617 cumulative IPC: 2.00653 (Simulation time: 0 hr 1 min 47 sec) 
Heartbeat CPU  0 instructions:   82000003 cycles:   40869893 heartbeat IPC: 1.99337 cumulative IPC: 2.00637 (Simulation time: 0 hr 1 min 49 sec) 
Heartbeat CPU  0 instructions:   83000001 cycles:   41371832 heartbeat IPC: 1.99227 cumulative IPC: 2.00620 (Simulation time: 0 hr 1 min 50 sec) 
Heartbeat CPU  0 instructions:   84000000 cycles:   41863068 heartbeat IPC: 2.03568 cumulative IPC: 2.00654 (Simulation time: 0 hr 1 min 51 sec) 
Heartbeat CPU  0 instructions:   85000002 cycles:   42360558 heartbeat IPC: 2.01009 cumulative IPC: 2.00658 (Simulation time: 0 hr 1 min 53 sec) 
Heartbeat CPU  0 instructions:   86000002 cycles:   42862427 heartbeat IPC: 1.99255 cumulative IPC: 2.00642 (Simulation time: 0 hr 1 min 54 sec) 
Heartbeat CPU  0 instructions:   87000002 cycles:   43364154 heartbeat IPC: 1.99312 cumulative IPC: 2.00627 (Simulation time: 0 hr 1 min 55 sec) 
Heartbeat CPU  0 instructions:   88000000 cycles:   43866187 heartbeat IPC: 1.99190 cumulative IPC: 2.00610 (Simulation time: 0 hr 1 min 57 sec) 
Heartbeat CPU  0 instructions:   89000003 cycles:   44352889 heartbeat IPC: 2.05465 cumulative IPC: 2.00663 (Simulation time: 0 hr 1 min 58 sec) 
Heartbeat CPU  0 instructions:   90000002 cycles:   44855086 heartbeat IPC: 1.99125 cumulative IPC: 2.00646 (Simulation time: 0 hr 1 min 59 sec) 
Heartbeat CPU  0 instructions:   91000000 cycles:   45356557 heartbeat IPC: 1.99413 cumulative IPC: 2.00633 (Simulation time: 0 hr 2 min 1 sec) 
Heartbeat CPU  0 instructions:   92000000 cycles:   45858336 heartbeat IPC: 1.99291 cumulative IPC: 2.00618 (Simulation time: 0 hr 2 min 2 sec) 
Heartbeat CPU  0 instructions:   93000002 cycles:   46351336 heartbeat IPC: 2.02840 cumulative IPC: 2.00641 (Simulation time: 0 hr 2 min 3 sec) 
Heartbeat CPU  0 instructions:   94000003 cycles:   46847147 heartbeat IPC: 2.01690 cumulative IPC: 2.00653 (Simulation time: 0 hr 2 min 5 sec) 
Heartbeat CPU  0 instructions:   95000003 cycles:   47348779 heartbeat IPC: 1.99349 cumulative IPC: 2.00639 (Simulation time: 0 hr 2 min 6 sec) 
Heartbeat CPU  0 instructions:   96000000 cycles:   47850515 heartbeat IPC: 1.99307 cumulative IPC: 2.00625 (Simulation time: 0 hr 2 min 7 sec) 
Heartbeat CPU  0 instructions:   97000000 cycles:   48351963 heartbeat IPC: 1.99422 cumulative IPC: 2.00612 (Simulation time: 0 hr 2 min 8 sec) 
Heartbeat CPU  0 instructions:   98000000 cycles:   48838688 heartbeat IPC: 2.05455 cumulative IPC: 2.00661 (Simulation time: 0 hr 2 min 10 sec) 
Heartbeat CPU  0 instructions:   99000002 cycles:   49340565 heartbeat IPC: 1.99252 cumulative IPC: 2.00646 (Simulation time: 0 hr 2 min 11 sec) 
Heartbeat CPU  0 instructions:  100000000 cycles:   49842267 heartbeat IPC: 1.99321 cumulative IPC: 2.00633 (Simulation time: 0 hr 2 min 12 sec) 

Warmup complete CPU  0 instructions:  100000003 cycles:   49842268 (Simulation time: 0 hr 2 min 12 sec) 

Heartbeat CPU  0 instructions:  101000001 cycles:   50708555 heartbeat IPC: 1.15435 cumulative IPC: 1.15435 (Simulation time: 0 hr 2 min 14 sec) 
Heartbeat CPU  0 instructions:  102000002 cycles:   51581762 heartbeat IPC: 1.14521 cumulative IPC: 1.14976 (Simulation time: 0 hr 2 min 15 sec) 
Heartbeat CPU  0 instructions:  103000002 cycles:   52465434 heartbeat IPC: 1.13164 cumulative IPC: 1.14366 (Simulation time: 0 hr 2 min 17 sec) 
Heartbeat CPU  0 instructions:  104000000 cycles:   53348017 heartbeat IPC: 1.13304 cumulative IPC: 1.14098 (Simulation time: 0 hr 2 min 18 sec) 
Heartbeat CPU  0 instructions:  105000000 cycles:   54205817 heartbeat IPC: 1.16577 cumulative IPC: 1.14586 (Simulation time: 0 hr 2 min 20 sec) 
Heartbeat CPU  0 instructions:  106000001 cycles:   55073605 heartbeat IPC: 1.15236 cumulative IPC: 1.14693 (Simulation time: 0 hr 2 min 21 sec) 
Heartbeat CPU  0 instructions:  107000002 cycles:   55952673 heartbeat IPC: 1.13757 cumulative IPC: 1.14559 (Simulation time: 0 hr 2 min 23 sec) 
Heartbeat CPU  0 instructions:  108000000 cycles:   56832396 heartbeat IPC: 1.13672 cumulative IPC: 1.14447 (Simulation time: 0 hr 2 min 24 sec) 
Heartbeat CPU  0 instructions:  109000003 cycles:   57714472 heartbeat IPC: 1.13369 cumulative IPC: 1.14326 (Simulation time: 0 hr 2 min 26 sec) 
Heartbeat CPU  0 instructions:  110000001 cycles:   58582311 heartbeat IPC: 1.15229 cumulative IPC: 1.14416 (Simulation time: 0 hr 2 min 27 sec) 
Heartbeat CPU  0 instructions:  111000003 cycles:   59440774 heartbeat IPC: 1.16487 cumulative IPC: 1.14601 (Simulation time: 0 hr 2 min 29 sec) 
Heartbeat CPU  0 instructions:  112000000 cycles:   60322836 heartbeat IPC: 1.13370 cumulative IPC: 1.14498 (Simulation time: 0 hr 2 min 30 sec) 
Heartbeat CPU  0 instructions:  113000001 cycles:   61198727 heartbeat IPC: 1.14170 cumulative IPC: 1.14472 (Simulation time: 0 hr 2 min 32 sec) 
Heartbeat CPU  0 instructions:  114000002 cycles:   62077414 heartbeat IPC: 1.13806 cumulative IPC: 1.14424 (Simulation time: 0 hr 2 min 33 sec) 
Heartbeat CPU  0 instructions:  115000000 cycles:   62944789 heartbeat IPC: 1.15290 cumulative IPC: 1.14482 (Simulation time: 0 hr 2 min 35 sec) 
Heartbeat CPU  0 instructions:  116000000 cycles:   63812250 heartbeat IPC: 1.15279 cumulative IPC: 1.14531 (Simulation time: 0 hr 2 min 36 sec) 
Heartbeat CPU  0 instructions:  117000002 cycles:   64686855 heartbeat IPC: 1.14338 cumulative IPC: 1.14520 (Simulation time: 0 hr 2 min 38 sec) 
Heartbeat CPU  0 instructions:  118000001 cycles:   65564423 heartbeat IPC: 1.13951 cumulative IPC: 1.14488 (Simulation time: 0 hr 2 min 39 sec) 
Heartbeat CPU  0 instructions:  119000002 cycles:   66447430 heartbeat IPC: 1.13249 cumulative IPC: 1.14422 (Simulation time: 0 hr 2 min 41 sec) 
Heartbeat CPU  0 instructions:  120000000 cycles:   67322525 heartbeat IPC: 1.14273 cumulative IPC: 1.14415 (Simulation time: 0 hr 2 min 42 sec) 
Heartbeat CPU  0 instructions:  121000001 cycles:   68191603 heartbeat IPC: 1.15065 cumulative IPC: 1.14446 (Simulation time: 0 hr 2 min 44 sec) 
Heartbeat CPU  0 instructions:  122000002 cycles:   69060563 heartbeat IPC: 1.15080 cumulative IPC: 1.14474 (Simulation time: 0 hr 2 min 45 sec) 
Heartbeat CPU  0 instructions:  123000001 cycles:   69930598 heartbeat IPC: 1.14938 cumulative IPC: 1.14494 (Simulation time: 0 hr 2 min 47 sec) 
Heartbeat CPU  0 instructions:  124000000 cycles:   70810952 heartbeat IPC: 1.13591 cumulative IPC: 1.14456 (Simulation time: 0 hr 2 min 48 sec) 
Heartbeat CPU  0 instructions:  125000000 cycles:   71693414 heartbeat IPC: 1.13319 cumulative IPC: 1.14410 (Simulation time: 0 hr 2 min 50 sec) 
Heartbeat CPU  0 instructions:  126000000 cycles:   72548218 heartbeat IPC: 1.16986 cumulative IPC: 1.14507 (Simulation time: 0 hr 2 min 51 sec) 
Heartbeat CPU  0 instructions:  127000000 cycles:   73413118 heartbeat IPC: 1.15620 cumulative IPC: 1.14548 (Simulation time: 0 hr 2 min 53 sec) 
Heartbeat CPU  0 instructions:  128000000 cycles:   74283877 heartbeat IPC: 1.14842 cumulative IPC: 1.14559 (Simulation time: 0 hr 2 min 54 sec) 
Heartbeat CPU  0 instructions:  129000002 cycles:   75161233 heartbeat IPC: 1.13979 cumulative IPC: 1.14539 (Simulation time: 0 hr 2 min 56 sec) 
Heartbeat CPU  0 instructions:  130000002 cycles:   76046983 heartbeat IPC: 1.12899 cumulative IPC: 1.14483 (Simulation time: 0 hr 2 min 57 sec) 
Heartbeat CPU  0 instructions:  131000002 cycles:   76907919 heartbeat IPC: 1.16153 cumulative IPC: 1.14536 (Simulation time: 0 hr 2 min 59 sec) 
Heartbeat CPU  0 instructions:  132000000 cycles:   77771136 heartbeat IPC: 1.15845 cumulative IPC: 1.14577 (Simulation time: 0 hr 3 min 0 sec) 
Heartbeat CPU  0 instructions:  133000000 cycles:   78641211 heartbeat IPC: 1.14933 cumulative IPC: 1.14588 (Simulation time: 0 hr 3 min 2 sec) 
Heartbeat CPU  0 instructions:  134000000 cycles:   79518615 heartbeat IPC: 1.13973 cumulative IPC: 1.14569 (Simulation time: 0 hr 3 min 3 sec) 
Heartbeat CPU  0 instructions:  135000002 cycles:   80403048 heartbeat IPC: 1.13067 cumulative IPC: 1.14526 (Simulation time: 0 hr 3 min 5 sec) 
Heartbeat CPU  0 instructions:  136000000 cycles:   81267201 heartbeat IPC: 1.15720 cumulative IPC: 1.14559 (Simulation time: 0 hr 3 min 6 sec) 
Heartbeat CPU  0 instructions:  137000001 cycles:   82128698 heartbeat IPC: 1.16077 cumulative IPC: 1.14599 (Simulation time: 0 hr 3 min 8 sec) 
Heartbeat CPU  0 instructions:  138000003 cycles:   82999110 heartbeat IPC: 1.14888 cumulative IPC: 1.14607 (Simulation time: 0 hr 3 min 9 sec) 
Heartbeat CPU  0 instructions:  139000003 cycles:   83874900 heartbeat IPC: 1.14183 cumulative IPC: 1.14596 (Simulation time: 0 hr 3 min 11 sec) 
Heartbeat CPU  0 instructions:  140000000 cycles:   84758888 heartbeat IPC: 1.13123 cumulative IPC: 1.14559 (Simulation time: 0 hr 3 min 12 sec) 
Heartbeat CPU  0 instructions:  141000003 cycles:   85627493 heartbeat IPC: 1.15127 cumulative IPC: 1.14572 (Simulation time: 0 hr 3 min 14 sec) 
Heartbeat CPU  0 instructions:  142000000 cycles:   86488189 heartbeat IPC: 1.16185 cumulative IPC: 1.14610 (Simulation time: 0 hr 3 min 16 sec) 
Heartbeat CPU  0 instructions:  143000000 cycles:   87355731 heartbeat IPC: 1.15268 cumulative IPC: 1.14626 (Simulation time: 0 hr 3 min 17 sec) 
Heartbeat CPU  0 instructions:  144000000 cycles:   88233592 heartbeat IPC: 1.13913 cumulative IPC: 1.14609 (Simulation time: 0 hr 3 min 19 sec) 
Heartbeat CPU  0 instructions:  145000002 cycles:   89119769 heartbeat IPC: 1.12845 cumulative IPC: 1.14569 (Simulation time: 0 hr 3 min 20 sec) 
Heartbeat CPU  0 instructions:  146000002 cycles:   89994761 heartbeat IPC: 1.14287 cumulative IPC: 1.14563 (Simulation time: 0 hr 3 min 22 sec) 
Heartbeat CPU  0 instructions:  147000002 cycles:   90923785 heartbeat IPC: 1.07640 cumulative IPC: 1.14407 (Simulation time: 0 hr 3 min 23 sec) 
Heartbeat CPU  0 instructions:  148000000 cycles:   92239790 heartbeat IPC: 0.75987 cumulative IPC: 1.13214 (Simulation time: 0 hr 3 min 25 sec) 
Heartbeat CPU  0 instructions:  149000002 cycles:   93561997 heartbeat IPC: 0.75631 cumulative IPC: 1.12078 (Simulation time: 0 hr 3 min 26 sec) 
Heartbeat CPU  0 instructions:  150000002 cycles:   94890742 heartbeat IPC: 0.75259 cumulative IPC: 1.10992 (Simulation time: 0 hr 3 min 28 sec) 
Heartbeat CPU  0 instructions:  151000000 cycles:   96207883 heartbeat IPC: 0.75922 cumulative IPC: 1.09995 (Simulation time: 0 hr 3 min 30 sec) 
Heartbeat CPU  0 instructions:  152000000 cycles:   97526069 heartbeat IPC: 0.75862 cumulative IPC: 1.09052 (Simulation time: 0 hr 3 min 31 sec) 
Heartbeat CPU  0 instructions:  153000003 cycles:   98855779 heartbeat IPC: 0.75205 cumulative IPC: 1.08133 (Simulation time: 0 hr 3 min 33 sec) 
Heartbeat CPU  0 instructions:  154000002 cycles:  100192552 heartbeat IPC: 0.74807 cumulative IPC: 1.07249 (Simulation time: 0 hr 3 min 35 sec) 
Heartbeat CPU  0 instructions:  155000003 cycles:  101530366 heartbeat IPC: 0.74749 cumulative IPC: 1.06407 (Simulation time: 0 hr 3 min 36 sec) 
Heartbeat CPU  0 instructions:  156000000 cycles:  102860672 heartbeat IPC: 0.75170 cumulative IPC: 1.05624 (Simulation time: 0 hr 3 min 38 sec) 
Heartbeat CPU  0 instructions:  157000003 cycles:  104198242 heartbeat IPC: 0.74763 cumulative IPC: 1.04864 (Simulation time: 0 hr 3 min 40 sec) 
Heartbeat CPU  0 instructions:  158000003 cycles:  105521760 heartbeat IPC: 0.75556 cumulative IPC: 1.04168 (Simulation time: 0 hr 3 min 41 sec) 
Heartbeat CPU  0 instructions:  159000003 cycles:  106857060 heartbeat IPC: 0.74890 cumulative IPC: 1.03482 (Simulation time: 0 hr 3 min 43 sec) 
Heartbeat CPU  0 instructions:  160000000 cycles:  108196557 heartbeat IPC: 0.74655 cumulative IPC: 1.02820 (Simulation time: 0 hr 3 min 45 sec) 
Heartbeat CPU  0 instructions:  161000000 cycles:  109524006 heartbeat IPC: 0.75332 cumulative IPC: 1.02209 (Simulation time: 0 hr 3 min 46 sec) 
Heartbeat CPU  0 instructions:  162000000 cycles:  110864011 heartbeat IPC: 0.74627 cumulative IPC: 1.01603 (Simulation time: 0 hr 3 min 48 sec) 
Heartbeat CPU  0 instructions:  163000002 cycles:  112200324 heartbeat IPC: 0.74833 cumulative IPC: 1.01029 (Simulation time: 0 hr 3 min 50 sec) 
Heartbeat CPU  0 instructions:  164000000 cycles:  113520107 heartbeat IPC: 0.75770 cumulative IPC: 1.00506 (Simulation time: 0 hr 3 min 51 sec) 
Heartbeat CPU  0 instructions:  165000001 cycles:  114856916 heartbeat IPC: 0.74805 cumulative IPC: 0.99977 (Simulation time: 0 hr 3 min 53 sec) 
Heartbeat CPU  0 instructions:  166000001 cycles:  116194315 heartbeat IPC: 0.74772 cumulative IPC: 0.99469 (Simulation time: 0 hr 3 min 55 sec) 
Heartbeat CPU  0 instructions:  167000001 cycles:  117517389 heartbeat IPC: 0.75582 cumulative IPC: 0.99002 (Simulation time: 0 hr 3 min 56 sec) 
Heartbeat CPU  0 instructions:  168000000 cycles:  118854844 heartbeat IPC: 0.74769 cumulative IPC: 0.98533 (Simulation time: 0 hr 3 min 58 sec) 
Heartbeat CPU  0 instructions:  169000002 cycles:  120191603 heartbeat IPC: 0.74808 cumulative IPC: 0.98082 (Simulation time: 0 hr 4 min 0 sec) 
Heartbeat CPU  0 instructions:  170000002 cycles:  121515982 heartbeat IPC: 0.75507 cumulative IPC: 0.97665 (Simulation time: 0 hr 4 min 1 sec) 
Heartbeat CPU  0 instructions:  171000002 cycles:  122839814 heartbeat IPC: 0.75538 cumulative IPC: 0.97264 (Simulation time: 0 hr 4 min 3 sec) 
Heartbeat CPU  0 instructions:  172000000 cycles:  124162417 heartbeat IPC: 0.75608 cumulative IPC: 0.96878 (Simulation time: 0 hr 4 min 5 sec) 
Heartbeat CPU  0 instructions:  173000002 cycles:  125481757 heartbeat IPC: 0.75796 cumulative IPC: 0.96510 (Simulation time: 0 hr 4 min 6 sec) 
Heartbeat CPU  0 instructions:  174000002 cycles:  126811922 heartbeat IPC: 0.75179 cumulative IPC: 0.96142 (Simulation time: 0 hr 4 min 8 sec) 
Heartbeat CPU  0 instructions:  175000002 cycles:  128149755 heartbeat IPC: 0.74748 cumulative IPC: 0.95776 (Simulation time: 0 hr 4 min 9 sec) 
Heartbeat CPU  0 instructions:  176000000 cycles:  129478453 heartbeat IPC: 0.75261 cumulative IPC: 0.95434 (Simulation time: 0 hr 4 min 11 sec) 
Heartbeat CPU  0 instructions:  177000003 cycles:  130817557 heartbeat IPC: 0.74677 cumulative IPC: 0.95091 (Simulation time: 0 hr 4 min 13 sec) 
Heartbeat CPU  0 instructions:  178000000 cycles:  132147746 heartbeat IPC: 0.75177 cumulative IPC: 0.94769 (Simulation time: 0 hr 4 min 14 sec) 
Heartbeat CPU  0 instructions:  179000002 cycles:  133470349 heartbeat IPC: 0.75609 cumulative IPC: 0.94466 (Simulation time: 0 hr 4 min 16 sec) 
Heartbeat CPU  0 instructions:  180000000 cycles:  134793422 heartbeat IPC: 0.75581 cumulative IPC: 0.94172 (Simulation time: 0 hr 4 min 18 sec) 
Heartbeat CPU  0 instructions:  181000003 cycles:  136118939 heartbeat IPC: 0.75442 cumulative IPC: 0.93884 (Simulation time: 0 hr 4 min 19 sec) 
Heartbeat CPU  0 instructions:  182000002 cycles:  137450055 heartbeat IPC: 0.75125 cumulative IPC: 0.93599 (Simulation time: 0 hr 4 min 21 sec) 
Heartbeat CPU  0 instructions:  183000000 cycles:  138771860 heartbeat IPC: 0.75654 cumulative IPC: 0.93332 (Simulation time: 0 hr 4 min 23 sec) 
Heartbeat CPU  0 instructions:  184000000 cycles:  140100280 heartbeat IPC: 0.75277 cumulative IPC: 0.93067 (Simulation time: 0 hr 4 min 24 sec) 
Heartbeat CPU  0 instructions:  185000003 cycles:  141435261 heartbeat IPC: 0.74908 cumulative IPC: 0.92802 (Simulation time: 0 hr 4 min 26 sec) 
Heartbeat CPU  0 instructions:  186000001 cycles:  142757324 heartbeat IPC: 0.75639 cumulative IPC: 0.92558 (Simulation time: 0 hr 4 min 28 sec) 
Heartbeat CPU  0 instructions:  187000002 cycles:  144087506 heartbeat IPC: 0.75178 cumulative IPC: 0.92312 (Simulation time: 0 hr 4 min 29 sec) 
Heartbeat CPU  0 instructions:  188000000 cycles:  145413115 heartbeat IPC: 0.75437 cumulative IPC: 0.92078 (Simulation time: 0 hr 4 min 31 sec) 
Heartbeat CPU  0 instructions:  189000001 cycles:  146743482 heartbeat IPC: 0.75167 cumulative IPC: 0.91846 (Simulation time: 0 hr 4 min 33 sec) 
Heartbeat CPU  0 instructions:  190000003 cycles:  148074934 heartbeat IPC: 0.75106 cumulative IPC: 0.91619 (Simulation time: 0 hr 4 min 34 sec) 
Heartbeat CPU  0 instructions:  191000002 cycles:  149404284 heartbeat IPC: 0.75225 cumulative IPC: 0.91400 (Simulation time: 0 hr 4 min 36 sec) 
Heartbeat CPU  0 instructions:  192000000 cycles:  150721500 heartbeat IPC: 0.75918 cumulative IPC: 0.91198 (Simulation time: 0 hr 4 min 37 sec) 
Heartbeat CPU  0 instructions:  193000003 cycles:  151867887 heartbeat IPC: 0.87231 cumulative IPC: 0.91154 (Simulation time: 0 hr 4 min 39 sec) 
Heartbeat CPU  0 instructions:  194000001 cycles:  155941552 heartbeat IPC: 0.24548 cumulative IPC: 0.88596 (Simulation time: 0 hr 4 min 42 sec) 
Heartbeat CPU  0 instructions:  195000000 cycles:  159570982 heartbeat IPC: 0.27553 cumulative IPC: 0.86577 (Simulation time: 0 hr 4 min 45 sec) 
Heartbeat CPU  0 instructions:  196000000 cycles:  160297972 heartbeat IPC: 1.37553 cumulative IPC: 0.86913 (Simulation time: 0 hr 4 min 46 sec) 
Heartbeat CPU  0 instructions:  197000000 cycles:  161025485 heartbeat IPC: 1.37455 cumulative IPC: 0.87243 (Simulation time: 0 hr 4 min 48 sec) 
Heartbeat CPU  0 instructions:  198000003 cycles:  161750661 heartbeat IPC: 1.37898 cumulative IPC: 0.87572 (Simulation time: 0 hr 4 min 49 sec) 
Heartbeat CPU  0 instructions:  199000002 cycles:  162479571 heartbeat IPC: 1.37191 cumulative IPC: 0.87893 (Simulation time: 0 hr 4 min 51 sec) 
Heartbeat CPU  0 instructions:  200000000 cycles:  163205423 heartbeat IPC: 1.37769 cumulative IPC: 0.88212 (Simulation time: 0 hr 4 min 52 sec) 
Finished CPU 0 instructions: 100000000 cycles: 113363184 cumulative IPC: 0.88212 (Simulation time: 0 hr 4 min 52 sec) 

ChampSim completed all CPUs

[ROI Statistics]
Core_0_instructions 100000000
Core_0_cycles 113363184
Core_0_IPC 0.88212

Core_0_branch_prediction_accuracy 99.15344
Core_0_branch_MPKI 0.35029
Core_0_average_ROB_occupancy_at_mispredict 249.80065

Core_0_L1D_total_access 27454484
Core_0_L1D_total_hit 26012619
Core_0_L1D_total_miss 1441865
Core_0_L1D_loads 22970416
Core_0_L1D_load_hit 21865546
Core_0_L1D_load_miss 1104870
Core_0_L1D_RFOs 4484068
Core_0_L1D_RFO_hit 4147073
Core_0_L1D_RFO_miss 336995
Core_0_L1D_prefetches 0
Core_0_L1D_prefetch_hit 0
Core_0_L1D_prefetch_miss 0
Core_0_L1D_writebacks 0
Core_0_L1D_writeback_hit 0
Core_0_L1D_writeback_miss 0
Core_0_L1D_prefetch_requested 0
Core_0_L1D_prefetch_issued 0
Core_0_L1D_prefetch_useful 0
Core_0_L1D_prefetch_useless 0
Core_0_L1D_prefetch_late 0
Core_0_L1D_average_miss_latency 76.85649

Core_0_L1I_total_access 22741477
Core_0_L1I_total_hit 22741257
Core_0_L1I_total_miss 220
Core_0_L1I_loads 22741477
Core_0_L1I_load_hit 22741257
Core_0_L1I_load_miss 220
Core_0_L1I_RFOs 0
Core_0_L1I_RFO_hit 0
Core_0_L1I_RFO_miss 0
Core_0_L1I_prefetches 0
Core_0_L1I_prefetch_hit 0
Core_0_L1I_prefetch_miss 0
Core_0_L1I_writebacks 0
Core_0_L1I_writeback_hit 0
Core_0_L1I_writeback_miss 0
Core_0_L1I_prefetch_requested 0
Core_0_L1I_prefetch_issued 0
Core_0_L1I_prefetch_useful 0
Core_0_L1I_prefetch_useless 0
Core_0_L1I_prefetch_late 0
Core_0_L1I_average_miss_latency 169.88182

Core_0_L2C_total_access 2885666
Core_0_L2C_total_hit 1844112
Core_0_L2C_total_miss 1041554
Core_0_L2C_loads 1105085
Core_0_L2C_load_hit 842333
Core_0_L2C_load_miss 262752
Core_0_L2C_RFOs 336941
Core_0_L2C_RFO_hit 136099
Core_0_L2C_RFO_miss 200842
Core_0_L2C_prefetches 890506
Core_0_L2C_prefetch_hit 312668
Core_0_L2C_prefetch_miss 577838
Core_0_L2C_writebacks 553134
Core_0_L2C_writeback_hit 553012
Core_0_L2C_writeback_miss 122
Core_0_L2C_prefetch_requested 2362083
Core_0_L2C_prefetch_issued 2325550
Core_0_L2C_prefetch_useful 1022700
Core_0_L2C_prefetch_useless 50720
Core_0_L2C_prefetch_late 186046
Core_0_L2C_average_miss_latency 137.56579

Core_0_LLC_total_access 1909552
Core_0_LLC_total_hit 922573
Core_0_LLC_total_miss 986979
Core_0_LLC_loads 76724
Core_0_LLC_load_hit 21757
Core_0_LLC_load_miss 54967
Core_0_LLC_RFOs 200842
Core_0_LLC_RFO_hit 9542
Core_0_LLC_RFO_miss 191300
Core_0_LLC_prefetches 1225374
Core_0_LLC_prefetch_hit 486044
Core_0_LLC_prefetch_miss 739330
Core_0_LLC_writebacks 406612
Core_0_LLC_writeback_hit 405230
Core_0_LLC_writeback_miss 1382
Core_0_LLC_prefetch_requested 1206391
Core_0_LLC_prefetch_issued 1187418
Core_0_LLC_prefetch_useful 39789
Core_0_LLC_prefetch_useless 1037072
Core_0_LLC_prefetch_late 1062
Core_0_LLC_average_miss_latency 240.09868

Core_0_major_page_fault 0
Core_0_minor_page_fault 15627

CPU 0 L2C next line prefetcher final stats
LLC Next Line Prefetcher Final Stats: none
Channel_0_RQ_row_buffer_hit 334384
Channel_0_RQ_row_buffer_miss 651212
Channel_0_WQ_row_buffer_hit 109102
Channel_0_WQ_row_buffer_miss 277036
Channel_0_WQ_full 0
Channel_0_dbus_congested 412523

avg_congested_cycle 10
