*************************************************
   ChampSim Multicore Out-of-Order Simulator
   Last compiled: Dec 23 2023 14:01:08
*************************************************

trace_0 ./test_trace/437.leslie3d-134B.champsimtrace.xz
CPU 0 L1D next line prefetcher
CPU 0 L2C next line prefetcher
Initialize SHIP state
LLC Next Line Prefetcher
warmup_instructions 100000000
simulation_instructions 100000000
champsim_seed 218

num_cpus 1
cpu_freq 4000
dram_io_freq 2400
page_size 4096
block_size 64
max_read_per_cycle 8
max_fill_per_cycle 1
dram_channels 1
dram_ranks 1
dram_banks 8
dram_rows 65536
dram_columns 128
dram_row_size 8
dram_size 4096
dram_pages 1048576

fetch_width 6
decode_width 6
exec_width 4
lq_width 2
sq_width 2
retire_width 4
scheduler_size 128
branch_mispredict_penalty 20
rob_size 256
lq_size 72
sq_size 56
num_instr_destinations_sparc 4
num_instr_destinations 2
num_instr_sources 4

itlb_set 16
itlb_way 8
itlb_rq_size 16
itlb_wq_size 16
itlb_pq_size 0
itlb_mshr_size 8
itlb_latency 1

dtlb_set 16
dtlb_way 4
dtlb_rq_size 16
dtlb_wq_size 16
dtlb_pq_size 0
dtlb_mshr_size 8
dtlb_latency 1

stlb_set 128
stlb_way 12
stlb_rq_size 32
stlb_wq_size 32
stlb_pq_size 0
stlb_mshr_size 16
stlb_latency 8

l1i_size 32
l1i_set 64
l1i_way 8
l1i_rq_size 64
l1i_wq_size 64
l1i_pq_size 8
l1i_mshr_size 8
l1i_latency 1

l1d_size 32
l1d_set 64
l1d_way 8
l1d_rq_size 64
l1d_wq_size 64
l1d_pq_size 8
l1d_mshr_size 16
l1d_latency 4

l2c_size 512
l2c_set 1024
l2c_way 8
l2c_rq_size 32
l2c_wq_size 32
l2c_pq_size 16
l2c_mshr_size 32
l2c_latency 10

llc_size 2048
llc_set 2048
llc_way 16
llc_rq_size 32
llc_wq_size 32
llc_pq_size 32
llc_mshr_size 64
llc_latency 20

dram_channel_width 8
dram_wq_size 64
dram_rq_size 64
tRP 15
tRCD 15
tCAS 12.5
dram_dbus_turn_around_time 30
dram_write_high_wm 56
dram_write_low_wm 48
min_dram_writes_per_switch 16
dram_mtps 2400
dram_dbus_return_time 13


Heartbeat CPU  0 instructions:    1000002 cycles:     502359 heartbeat IPC: 1.99061 cumulative IPC: 1.99061 (Simulation time: 0 hr 0 min 1 sec) 
Heartbeat CPU  0 instructions:    2000001 cycles:     993953 heartbeat IPC: 2.03420 cumulative IPC: 2.01217 (Simulation time: 0 hr 0 min 3 sec) 
Heartbeat CPU  0 instructions:    3000001 cycles:    1490668 heartbeat IPC: 2.01323 cumulative IPC: 2.01252 (Simulation time: 0 hr 0 min 4 sec) 
Heartbeat CPU  0 instructions:    4000000 cycles:    1992289 heartbeat IPC: 1.99353 cumulative IPC: 2.00774 (Simulation time: 0 hr 0 min 5 sec) 
Heartbeat CPU  0 instructions:    5000000 cycles:    2494131 heartbeat IPC: 1.99266 cumulative IPC: 2.00471 (Simulation time: 0 hr 0 min 7 sec) 
Heartbeat CPU  0 instructions:    6000001 cycles:    2995910 heartbeat IPC: 1.99291 cumulative IPC: 2.00273 (Simulation time: 0 hr 0 min 8 sec) 
Heartbeat CPU  0 instructions:    7000000 cycles:    3482746 heartbeat IPC: 2.05408 cumulative IPC: 2.00991 (Simulation time: 0 hr 0 min 9 sec) 
Heartbeat CPU  0 instructions:    8000000 cycles:    3984488 heartbeat IPC: 1.99306 cumulative IPC: 2.00779 (Simulation time: 0 hr 0 min 11 sec) 
Heartbeat CPU  0 instructions:    9000001 cycles:    4485477 heartbeat IPC: 1.99605 cumulative IPC: 2.00648 (Simulation time: 0 hr 0 min 12 sec) 
Heartbeat CPU  0 instructions:   10000000 cycles:    4987175 heartbeat IPC: 1.99323 cumulative IPC: 2.00514 (Simulation time: 0 hr 0 min 13 sec) 
Heartbeat CPU  0 instructions:   11000001 cycles:    5481078 heartbeat IPC: 2.02469 cumulative IPC: 2.00690 (Simulation time: 0 hr 0 min 15 sec) 
Heartbeat CPU  0 instructions:   12000000 cycles:    5975823 heartbeat IPC: 2.02124 cumulative IPC: 2.00809 (Simulation time: 0 hr 0 min 16 sec) 
Heartbeat CPU  0 instructions:   13000003 cycles:    6477466 heartbeat IPC: 1.99346 cumulative IPC: 2.00696 (Simulation time: 0 hr 0 min 17 sec) 
Heartbeat CPU  0 instructions:   14000001 cycles:    6978867 heartbeat IPC: 1.99441 cumulative IPC: 2.00606 (Simulation time: 0 hr 0 min 19 sec) 
Heartbeat CPU  0 instructions:   15000003 cycles:    7480226 heartbeat IPC: 1.99458 cumulative IPC: 2.00529 (Simulation time: 0 hr 0 min 20 sec) 
Heartbeat CPU  0 instructions:   16000000 cycles:    7967412 heartbeat IPC: 2.05260 cumulative IPC: 2.00818 (Simulation time: 0 hr 0 min 21 sec) 
Heartbeat CPU  0 instructions:   17000001 cycles:    8469146 heartbeat IPC: 1.99309 cumulative IPC: 2.00729 (Simulation time: 0 hr 0 min 23 sec) 
Heartbeat CPU  0 instructions:   18000001 cycles:    8970499 heartbeat IPC: 1.99460 cumulative IPC: 2.00658 (Simulation time: 0 hr 0 min 24 sec) 
Heartbeat CPU  0 instructions:   19000003 cycles:    9471708 heartbeat IPC: 1.99518 cumulative IPC: 2.00597 (Simulation time: 0 hr 0 min 25 sec) 
Heartbeat CPU  0 instructions:   20000000 cycles:    9968265 heartbeat IPC: 2.01386 cumulative IPC: 2.00637 (Simulation time: 0 hr 0 min 27 sec) 
Heartbeat CPU  0 instructions:   21000001 cycles:   10460267 heartbeat IPC: 2.03251 cumulative IPC: 2.00760 (Simulation time: 0 hr 0 min 28 sec) 
Heartbeat CPU  0 instructions:   22000003 cycles:   10962110 heartbeat IPC: 1.99266 cumulative IPC: 2.00691 (Simulation time: 0 hr 0 min 29 sec) 
Heartbeat CPU  0 instructions:   23000001 cycles:   11464245 heartbeat IPC: 1.99149 cumulative IPC: 2.00624 (Simulation time: 0 hr 0 min 31 sec) 
Heartbeat CPU  0 instructions:   24000000 cycles:   11965789 heartbeat IPC: 1.99384 cumulative IPC: 2.00572 (Simulation time: 0 hr 0 min 32 sec) 
Heartbeat CPU  0 instructions:   25000003 cycles:   12452289 heartbeat IPC: 2.05550 cumulative IPC: 2.00766 (Simulation time: 0 hr 0 min 33 sec) 
Heartbeat CPU  0 instructions:   26000001 cycles:   12954136 heartbeat IPC: 1.99264 cumulative IPC: 2.00708 (Simulation time: 0 hr 0 min 35 sec) 
Heartbeat CPU  0 instructions:   27000003 cycles:   13456143 heartbeat IPC: 1.99201 cumulative IPC: 2.00652 (Simulation time: 0 hr 0 min 36 sec) 
Heartbeat CPU  0 instructions:   28000000 cycles:   13958000 heartbeat IPC: 1.99259 cumulative IPC: 2.00602 (Simulation time: 0 hr 0 min 37 sec) 
Heartbeat CPU  0 instructions:   29000002 cycles:   14455656 heartbeat IPC: 2.00942 cumulative IPC: 2.00614 (Simulation time: 0 hr 0 min 39 sec) 
Heartbeat CPU  0 instructions:   30000000 cycles:   14946021 heartbeat IPC: 2.03929 cumulative IPC: 2.00722 (Simulation time: 0 hr 0 min 40 sec) 
Heartbeat CPU  0 instructions:   31000002 cycles:   15447588 heartbeat IPC: 1.99376 cumulative IPC: 2.00679 (Simulation time: 0 hr 0 min 41 sec) 
Heartbeat CPU  0 instructions:   32000000 cycles:   15949026 heartbeat IPC: 1.99426 cumulative IPC: 2.00639 (Simulation time: 0 hr 0 min 43 sec) 
Heartbeat CPU  0 instructions:   33000001 cycles:   16450996 heartbeat IPC: 1.99215 cumulative IPC: 2.00596 (Simulation time: 0 hr 0 min 44 sec) 
Heartbeat CPU  0 instructions:   34000003 cycles:   16939764 heartbeat IPC: 2.04596 cumulative IPC: 2.00711 (Simulation time: 0 hr 0 min 45 sec) 
Heartbeat CPU  0 instructions:   35000000 cycles:   17439063 heartbeat IPC: 2.00280 cumulative IPC: 2.00699 (Simulation time: 0 hr 0 min 47 sec) 
Heartbeat CPU  0 instructions:   36000000 cycles:   17940351 heartbeat IPC: 1.99486 cumulative IPC: 2.00665 (Simulation time: 0 hr 0 min 48 sec) 
Heartbeat CPU  0 instructions:   37000003 cycles:   18442077 heartbeat IPC: 1.99313 cumulative IPC: 2.00628 (Simulation time: 0 hr 0 min 49 sec) 
Heartbeat CPU  0 instructions:   38000003 cycles:   18942919 heartbeat IPC: 1.99664 cumulative IPC: 2.00603 (Simulation time: 0 hr 0 min 51 sec) 
Heartbeat CPU  0 instructions:   39000003 cycles:   19430458 heartbeat IPC: 2.05112 cumulative IPC: 2.00716 (Simulation time: 0 hr 0 min 52 sec) 
Heartbeat CPU  0 instructions:   40000000 cycles:   19931554 heartbeat IPC: 1.99562 cumulative IPC: 2.00687 (Simulation time: 0 hr 0 min 53 sec) 
Heartbeat CPU  0 instructions:   41000001 cycles:   20433383 heartbeat IPC: 1.99271 cumulative IPC: 2.00652 (Simulation time: 0 hr 0 min 55 sec) 
Heartbeat CPU  0 instructions:   42000002 cycles:   20935279 heartbeat IPC: 1.99245 cumulative IPC: 2.00618 (Simulation time: 0 hr 0 min 56 sec) 
Heartbeat CPU  0 instructions:   43000003 cycles:   21426739 heartbeat IPC: 2.03476 cumulative IPC: 2.00684 (Simulation time: 0 hr 0 min 57 sec) 
Heartbeat CPU  0 instructions:   44000000 cycles:   21923640 heartbeat IPC: 2.01247 cumulative IPC: 2.00697 (Simulation time: 0 hr 0 min 59 sec) 
Heartbeat CPU  0 instructions:   45000001 cycles:   22425622 heartbeat IPC: 1.99211 cumulative IPC: 2.00663 (Simulation time: 0 hr 1 min 0 sec) 
Heartbeat CPU  0 instructions:   46000000 cycles:   22927029 heartbeat IPC: 1.99439 cumulative IPC: 2.00637 (Simulation time: 0 hr 1 min 1 sec) 
Heartbeat CPU  0 instructions:   47000002 cycles:   23428867 heartbeat IPC: 1.99268 cumulative IPC: 2.00607 (Simulation time: 0 hr 1 min 3 sec) 
Heartbeat CPU  0 instructions:   48000000 cycles:   23915485 heartbeat IPC: 2.05500 cumulative IPC: 2.00707 (Simulation time: 0 hr 1 min 4 sec) 
Heartbeat CPU  0 instructions:   49000002 cycles:   24417359 heartbeat IPC: 1.99254 cumulative IPC: 2.00677 (Simulation time: 0 hr 1 min 5 sec) 
Heartbeat CPU  0 instructions:   50000003 cycles:   24918726 heartbeat IPC: 1.99455 cumulative IPC: 2.00652 (Simulation time: 0 hr 1 min 7 sec) 
Heartbeat CPU  0 instructions:   51000003 cycles:   25420018 heartbeat IPC: 1.99485 cumulative IPC: 2.00629 (Simulation time: 0 hr 1 min 8 sec) 
Heartbeat CPU  0 instructions:   52000000 cycles:   25913552 heartbeat IPC: 2.02620 cumulative IPC: 2.00667 (Simulation time: 0 hr 1 min 9 sec) 
Heartbeat CPU  0 instructions:   53000001 cycles:   26408630 heartbeat IPC: 2.01989 cumulative IPC: 2.00692 (Simulation time: 0 hr 1 min 11 sec) 
Heartbeat CPU  0 instructions:   54000003 cycles:   26910288 heartbeat IPC: 1.99339 cumulative IPC: 2.00667 (Simulation time: 0 hr 1 min 12 sec) 
Heartbeat CPU  0 instructions:   55000003 cycles:   27411824 heartbeat IPC: 1.99387 cumulative IPC: 2.00643 (Simulation time: 0 hr 1 min 13 sec) 
Heartbeat CPU  0 instructions:   56000000 cycles:   27913039 heartbeat IPC: 1.99515 cumulative IPC: 2.00623 (Simulation time: 0 hr 1 min 15 sec) 
Heartbeat CPU  0 instructions:   57000002 cycles:   28400039 heartbeat IPC: 2.05339 cumulative IPC: 2.00704 (Simulation time: 0 hr 1 min 16 sec) 
Heartbeat CPU  0 instructions:   58000003 cycles:   28901590 heartbeat IPC: 1.99382 cumulative IPC: 2.00681 (Simulation time: 0 hr 1 min 17 sec) 
Heartbeat CPU  0 instructions:   59000001 cycles:   29403216 heartbeat IPC: 1.99351 cumulative IPC: 2.00658 (Simulation time: 0 hr 1 min 19 sec) 
Heartbeat CPU  0 instructions:   60000000 cycles:   29904356 heartbeat IPC: 1.99545 cumulative IPC: 2.00640 (Simulation time: 0 hr 1 min 20 sec) 
Heartbeat CPU  0 instructions:   61000000 cycles:   30400378 heartbeat IPC: 2.01604 cumulative IPC: 2.00655 (Simulation time: 0 hr 1 min 21 sec) 
Heartbeat CPU  0 instructions:   62000001 cycles:   30892684 heartbeat IPC: 2.03126 cumulative IPC: 2.00695 (Simulation time: 0 hr 1 min 23 sec) 
Heartbeat CPU  0 instructions:   63000001 cycles:   31394487 heartbeat IPC: 1.99281 cumulative IPC: 2.00672 (Simulation time: 0 hr 1 min 24 sec) 
Heartbeat CPU  0 instructions:   64000000 cycles:   31896544 heartbeat IPC: 1.99180 cumulative IPC: 2.00649 (Simulation time: 0 hr 1 min 25 sec) 
Heartbeat CPU  0 instructions:   65000000 cycles:   32398239 heartbeat IPC: 1.99324 cumulative IPC: 2.00628 (Simulation time: 0 hr 1 min 27 sec) 
Heartbeat CPU  0 instructions:   66000003 cycles:   32884469 heartbeat IPC: 2.05665 cumulative IPC: 2.00703 (Simulation time: 0 hr 1 min 28 sec) 
Heartbeat CPU  0 instructions:   67000000 cycles:   33386281 heartbeat IPC: 1.99277 cumulative IPC: 2.00681 (Simulation time: 0 hr 1 min 29 sec) 
Heartbeat CPU  0 instructions:   68000000 cycles:   33888069 heartbeat IPC: 1.99287 cumulative IPC: 2.00661 (Simulation time: 0 hr 1 min 31 sec) 
Heartbeat CPU  0 instructions:   69000001 cycles:   34390119 heartbeat IPC: 1.99184 cumulative IPC: 2.00639 (Simulation time: 0 hr 1 min 32 sec) 
Heartbeat CPU  0 instructions:   70000000 cycles:   34887434 heartbeat IPC: 2.01080 cumulative IPC: 2.00645 (Simulation time: 0 hr 1 min 33 sec) 
Heartbeat CPU  0 instructions:   71000001 cycles:   35377950 heartbeat IPC: 2.03867 cumulative IPC: 2.00690 (Simulation time: 0 hr 1 min 35 sec) 
Heartbeat CPU  0 instructions:   72000000 cycles:   35879837 heartbeat IPC: 1.99248 cumulative IPC: 2.00670 (Simulation time: 0 hr 1 min 36 sec) 
Heartbeat CPU  0 instructions:   73000002 cycles:   36380939 heartbeat IPC: 1.99561 cumulative IPC: 2.00655 (Simulation time: 0 hr 1 min 37 sec) 
Heartbeat CPU  0 instructions:   74000003 cycles:   36882727 heartbeat IPC: 1.99288 cumulative IPC: 2.00636 (Simulation time: 0 hr 1 min 39 sec) 
Heartbeat CPU  0 instructions:   75000001 cycles:   37371473 heartbeat IPC: 2.04605 cumulative IPC: 2.00688 (Simulation time: 0 hr 1 min 40 sec) 
Heartbeat CPU  0 instructions:   76000000 cycles:   37870862 heartbeat IPC: 2.00244 cumulative IPC: 2.00682 (Simulation time: 0 hr 1 min 41 sec) 
Heartbeat CPU  0 instructions:   77000000 cycles:   38372623 heartbeat IPC: 1.99298 cumulative IPC: 2.00664 (Simulation time: 0 hr 1 min 43 sec) 
Heartbeat CPU  0 instructions:   78000003 cycles:   38874101 heartbeat IPC: 1.99411 cumulative IPC: 2.00648 (Simulation time: 0 hr 1 min 44 sec) 
Heartbeat CPU  0 instructions:   79000001 cycles:   39374474 heartbeat IPC: 1.99851 cumulative IPC: 2.00638 (Simulation time: 0 hr 1 min 45 sec) 
Heartbeat CPU  0 instructions:   80000000 cycles:   39863007 heartbeat IPC: 2.04694 cumulative IPC: 2.00687 (Simulation time: 0 hr 1 min 47 sec) 
Heartbeat CPU  0 instructions:   81000003 cycles:   40364009 heartbeat IPC: 1.99601 cumulative IPC: 2.00674 (Simulation time: 0 hr 1 min 48 sec) 
Heartbeat CPU  0 instructions:   82000003 cycles:   40865547 heartbeat IPC: 1.99387 cumulative IPC: 2.00658 (Simulation time: 0 hr 1 min 49 sec) 
Heartbeat CPU  0 instructions:   83000001 cycles:   41367196 heartbeat IPC: 1.99342 cumulative IPC: 2.00642 (Simulation time: 0 hr 1 min 51 sec) 
Heartbeat CPU  0 instructions:   84000000 cycles:   41858414 heartbeat IPC: 2.03575 cumulative IPC: 2.00676 (Simulation time: 0 hr 1 min 52 sec) 
Heartbeat CPU  0 instructions:   85000002 cycles:   42355900 heartbeat IPC: 2.01011 cumulative IPC: 2.00680 (Simulation time: 0 hr 1 min 53 sec) 
Heartbeat CPU  0 instructions:   86000002 cycles:   42857808 heartbeat IPC: 1.99240 cumulative IPC: 2.00664 (Simulation time: 0 hr 1 min 55 sec) 
Heartbeat CPU  0 instructions:   87000002 cycles:   43359341 heartbeat IPC: 1.99389 cumulative IPC: 2.00649 (Simulation time: 0 hr 1 min 56 sec) 
Heartbeat CPU  0 instructions:   88000000 cycles:   43861237 heartbeat IPC: 1.99244 cumulative IPC: 2.00633 (Simulation time: 0 hr 1 min 57 sec) 
Heartbeat CPU  0 instructions:   89000003 cycles:   44347946 heartbeat IPC: 2.05462 cumulative IPC: 2.00686 (Simulation time: 0 hr 1 min 59 sec) 
Heartbeat CPU  0 instructions:   90000002 cycles:   44850002 heartbeat IPC: 1.99181 cumulative IPC: 2.00669 (Simulation time: 0 hr 2 min 0 sec) 
Heartbeat CPU  0 instructions:   91000000 cycles:   45351389 heartbeat IPC: 1.99446 cumulative IPC: 2.00655 (Simulation time: 0 hr 2 min 1 sec) 
Heartbeat CPU  0 instructions:   92000000 cycles:   45853032 heartbeat IPC: 1.99345 cumulative IPC: 2.00641 (Simulation time: 0 hr 2 min 3 sec) 
Heartbeat CPU  0 instructions:   93000002 cycles:   46345872 heartbeat IPC: 2.02906 cumulative IPC: 2.00665 (Simulation time: 0 hr 2 min 4 sec) 
Heartbeat CPU  0 instructions:   94000003 cycles:   46841636 heartbeat IPC: 2.01709 cumulative IPC: 2.00676 (Simulation time: 0 hr 2 min 5 sec) 
Heartbeat CPU  0 instructions:   95000003 cycles:   47343232 heartbeat IPC: 1.99364 cumulative IPC: 2.00662 (Simulation time: 0 hr 2 min 6 sec) 
Heartbeat CPU  0 instructions:   96000000 cycles:   47844859 heartbeat IPC: 1.99351 cumulative IPC: 2.00649 (Simulation time: 0 hr 2 min 8 sec) 
Heartbeat CPU  0 instructions:   97000000 cycles:   48346218 heartbeat IPC: 1.99458 cumulative IPC: 2.00636 (Simulation time: 0 hr 2 min 9 sec) 
Heartbeat CPU  0 instructions:   98000000 cycles:   48832928 heartbeat IPC: 2.05461 cumulative IPC: 2.00684 (Simulation time: 0 hr 2 min 11 sec) 
Heartbeat CPU  0 instructions:   99000002 cycles:   49334570 heartbeat IPC: 1.99346 cumulative IPC: 2.00671 (Simulation time: 0 hr 2 min 12 sec) 
Heartbeat CPU  0 instructions:  100000000 cycles:   49836154 heartbeat IPC: 1.99368 cumulative IPC: 2.00658 (Simulation time: 0 hr 2 min 13 sec) 

Warmup complete CPU  0 instructions:  100000003 cycles:   49836155 (Simulation time: 0 hr 2 min 13 sec) 

Heartbeat CPU  0 instructions:  101000001 cycles:   50662031 heartbeat IPC: 1.21084 cumulative IPC: 1.21083 (Simulation time: 0 hr 2 min 15 sec) 
Heartbeat CPU  0 instructions:  102000002 cycles:   51496361 heartbeat IPC: 1.19857 cumulative IPC: 1.20467 (Simulation time: 0 hr 2 min 16 sec) 
Heartbeat CPU  0 instructions:  103000001 cycles:   52340488 heartbeat IPC: 1.18465 cumulative IPC: 1.19792 (Simulation time: 0 hr 2 min 18 sec) 
Heartbeat CPU  0 instructions:  104000000 cycles:   53181063 heartbeat IPC: 1.18966 cumulative IPC: 1.19585 (Simulation time: 0 hr 2 min 19 sec) 
Heartbeat CPU  0 instructions:  105000003 cycles:   53999885 heartbeat IPC: 1.22127 cumulative IPC: 1.20085 (Simulation time: 0 hr 2 min 21 sec) 
Heartbeat CPU  0 instructions:  106000001 cycles:   54823792 heartbeat IPC: 1.21373 cumulative IPC: 1.20297 (Simulation time: 0 hr 2 min 22 sec) 
Heartbeat CPU  0 instructions:  107000002 cycles:   55664027 heartbeat IPC: 1.19014 cumulative IPC: 1.20112 (Simulation time: 0 hr 2 min 24 sec) 
Heartbeat CPU  0 instructions:  108000000 cycles:   56498274 heartbeat IPC: 1.19868 cumulative IPC: 1.20082 (Simulation time: 0 hr 2 min 25 sec) 
Heartbeat CPU  0 instructions:  109000003 cycles:   57335679 heartbeat IPC: 1.19417 cumulative IPC: 1.20008 (Simulation time: 0 hr 2 min 27 sec) 
Heartbeat CPU  0 instructions:  110000001 cycles:   58161003 heartbeat IPC: 1.21164 cumulative IPC: 1.20122 (Simulation time: 0 hr 2 min 28 sec) 
Heartbeat CPU  0 instructions:  111000003 cycles:   58981324 heartbeat IPC: 1.21904 cumulative IPC: 1.20282 (Simulation time: 0 hr 2 min 30 sec) 
Heartbeat CPU  0 instructions:  112000000 cycles:   59821692 heartbeat IPC: 1.18995 cumulative IPC: 1.20174 (Simulation time: 0 hr 2 min 31 sec) 
Heartbeat CPU  0 instructions:  113000002 cycles:   60656185 heartbeat IPC: 1.19833 cumulative IPC: 1.20148 (Simulation time: 0 hr 2 min 33 sec) 
Heartbeat CPU  0 instructions:  114000002 cycles:   61492054 heartbeat IPC: 1.19636 cumulative IPC: 1.20111 (Simulation time: 0 hr 2 min 34 sec) 
Heartbeat CPU  0 instructions:  115000000 cycles:   62322232 heartbeat IPC: 1.20456 cumulative IPC: 1.20134 (Simulation time: 0 hr 2 min 36 sec) 
Heartbeat CPU  0 instructions:  116000000 cycles:   63153707 heartbeat IPC: 1.20268 cumulative IPC: 1.20142 (Simulation time: 0 hr 2 min 37 sec) 
Heartbeat CPU  0 instructions:  117000002 cycles:   63983084 heartbeat IPC: 1.20573 cumulative IPC: 1.20167 (Simulation time: 0 hr 2 min 39 sec) 
Heartbeat CPU  0 instructions:  118000001 cycles:   64815877 heartbeat IPC: 1.20078 cumulative IPC: 1.20162 (Simulation time: 0 hr 2 min 40 sec) 
Heartbeat CPU  0 instructions:  119000002 cycles:   65651721 heartbeat IPC: 1.19640 cumulative IPC: 1.20135 (Simulation time: 0 hr 2 min 42 sec) 
Heartbeat CPU  0 instructions:  120000000 cycles:   66488548 heartbeat IPC: 1.19499 cumulative IPC: 1.20103 (Simulation time: 0 hr 2 min 43 sec) 
Heartbeat CPU  0 instructions:  121000001 cycles:   67317691 heartbeat IPC: 1.20607 cumulative IPC: 1.20127 (Simulation time: 0 hr 2 min 45 sec) 
Heartbeat CPU  0 instructions:  122000002 cycles:   68146386 heartbeat IPC: 1.20672 cumulative IPC: 1.20151 (Simulation time: 0 hr 2 min 46 sec) 
Heartbeat CPU  0 instructions:  123000000 cycles:   68977582 heartbeat IPC: 1.20308 cumulative IPC: 1.20158 (Simulation time: 0 hr 2 min 48 sec) 
Heartbeat CPU  0 instructions:  124000000 cycles:   69816273 heartbeat IPC: 1.19233 cumulative IPC: 1.20119 (Simulation time: 0 hr 2 min 49 sec) 
Heartbeat CPU  0 instructions:  125000000 cycles:   70664083 heartbeat IPC: 1.17951 cumulative IPC: 1.20031 (Simulation time: 0 hr 2 min 51 sec) 
Heartbeat CPU  0 instructions:  126000000 cycles:   71483324 heartbeat IPC: 1.22064 cumulative IPC: 1.20108 (Simulation time: 0 hr 2 min 52 sec) 
Heartbeat CPU  0 instructions:  127000000 cycles:   72308398 heartbeat IPC: 1.21201 cumulative IPC: 1.20148 (Simulation time: 0 hr 2 min 53 sec) 
Heartbeat CPU  0 instructions:  128000000 cycles:   73136648 heartbeat IPC: 1.20736 cumulative IPC: 1.20169 (Simulation time: 0 hr 2 min 55 sec) 
Heartbeat CPU  0 instructions:  129000002 cycles:   73971702 heartbeat IPC: 1.19753 cumulative IPC: 1.20155 (Simulation time: 0 hr 2 min 57 sec) 
Heartbeat CPU  0 instructions:  130000002 cycles:   74824565 heartbeat IPC: 1.17252 cumulative IPC: 1.20056 (Simulation time: 0 hr 2 min 58 sec) 
Heartbeat CPU  0 instructions:  131000002 cycles:   75645353 heartbeat IPC: 1.21834 cumulative IPC: 1.20112 (Simulation time: 0 hr 3 min 0 sec) 
Heartbeat CPU  0 instructions:  132000000 cycles:   76468079 heartbeat IPC: 1.21547 cumulative IPC: 1.20157 (Simulation time: 0 hr 3 min 1 sec) 
Heartbeat CPU  0 instructions:  133000000 cycles:   77296411 heartbeat IPC: 1.20725 cumulative IPC: 1.20174 (Simulation time: 0 hr 3 min 3 sec) 
Heartbeat CPU  0 instructions:  134000000 cycles:   78137148 heartbeat IPC: 1.18943 cumulative IPC: 1.20137 (Simulation time: 0 hr 3 min 4 sec) 
Heartbeat CPU  0 instructions:  135000002 cycles:   78985311 heartbeat IPC: 1.17902 cumulative IPC: 1.20072 (Simulation time: 0 hr 3 min 6 sec) 
Heartbeat CPU  0 instructions:  136000000 cycles:   79808824 heartbeat IPC: 1.21431 cumulative IPC: 1.20109 (Simulation time: 0 hr 3 min 7 sec) 
Heartbeat CPU  0 instructions:  137000001 cycles:   80631271 heartbeat IPC: 1.21589 cumulative IPC: 1.20149 (Simulation time: 0 hr 3 min 9 sec) 
Heartbeat CPU  0 instructions:  138000003 cycles:   81456189 heartbeat IPC: 1.21224 cumulative IPC: 1.20177 (Simulation time: 0 hr 3 min 10 sec) 
Heartbeat CPU  0 instructions:  139000003 cycles:   82297285 heartbeat IPC: 1.18892 cumulative IPC: 1.20144 (Simulation time: 0 hr 3 min 12 sec) 
Heartbeat CPU  0 instructions:  140000000 cycles:   83139456 heartbeat IPC: 1.18740 cumulative IPC: 1.20108 (Simulation time: 0 hr 3 min 13 sec) 
Heartbeat CPU  0 instructions:  141000003 cycles:   83963350 heartbeat IPC: 1.21375 cumulative IPC: 1.20139 (Simulation time: 0 hr 3 min 15 sec) 
Heartbeat CPU  0 instructions:  142000000 cycles:   84782712 heartbeat IPC: 1.22046 cumulative IPC: 1.20184 (Simulation time: 0 hr 3 min 16 sec) 
Heartbeat CPU  0 instructions:  143000000 cycles:   85611067 heartbeat IPC: 1.20721 cumulative IPC: 1.20196 (Simulation time: 0 hr 3 min 18 sec) 
Heartbeat CPU  0 instructions:  144000000 cycles:   86445770 heartbeat IPC: 1.19803 cumulative IPC: 1.20187 (Simulation time: 0 hr 3 min 19 sec) 
Heartbeat CPU  0 instructions:  145000002 cycles:   87288293 heartbeat IPC: 1.18691 cumulative IPC: 1.20153 (Simulation time: 0 hr 3 min 21 sec) 
Heartbeat CPU  0 instructions:  146000002 cycles:   88121038 heartbeat IPC: 1.20085 cumulative IPC: 1.20152 (Simulation time: 0 hr 3 min 22 sec) 
Heartbeat CPU  0 instructions:  147000002 cycles:   88998560 heartbeat IPC: 1.13957 cumulative IPC: 1.20013 (Simulation time: 0 hr 3 min 24 sec) 
Heartbeat CPU  0 instructions:  148000000 cycles:   90167413 heartbeat IPC: 0.85554 cumulative IPC: 1.19014 (Simulation time: 0 hr 3 min 25 sec) 
Heartbeat CPU  0 instructions:  149000002 cycles:   91340173 heartbeat IPC: 0.85269 cumulative IPC: 1.18061 (Simulation time: 0 hr 3 min 27 sec) 
Heartbeat CPU  0 instructions:  150000002 cycles:   92514165 heartbeat IPC: 0.85179 cumulative IPC: 1.17156 (Simulation time: 0 hr 3 min 28 sec) 
Heartbeat CPU  0 instructions:  151000000 cycles:   93680753 heartbeat IPC: 0.85720 cumulative IPC: 1.16320 (Simulation time: 0 hr 3 min 30 sec) 
Heartbeat CPU  0 instructions:  152000000 cycles:   94856950 heartbeat IPC: 0.85020 cumulative IPC: 1.15502 (Simulation time: 0 hr 3 min 32 sec) 
Heartbeat CPU  0 instructions:  153000003 cycles:   96050385 heartbeat IPC: 0.83792 cumulative IPC: 1.14683 (Simulation time: 0 hr 3 min 33 sec) 
Heartbeat CPU  0 instructions:  154000002 cycles:   97220022 heartbeat IPC: 0.85497 cumulative IPC: 1.13963 (Simulation time: 0 hr 3 min 35 sec) 
Heartbeat CPU  0 instructions:  155000003 cycles:   98389812 heartbeat IPC: 0.85486 cumulative IPC: 1.13277 (Simulation time: 0 hr 3 min 37 sec) 
Heartbeat CPU  0 instructions:  156000000 cycles:   99560940 heartbeat IPC: 0.85388 cumulative IPC: 1.12620 (Simulation time: 0 hr 3 min 38 sec) 
Heartbeat CPU  0 instructions:  157000003 cycles:  100741896 heartbeat IPC: 0.84677 cumulative IPC: 1.11972 (Simulation time: 0 hr 3 min 40 sec) 
Heartbeat CPU  0 instructions:  158000000 cycles:  101927816 heartbeat IPC: 0.84322 cumulative IPC: 1.11342 (Simulation time: 0 hr 3 min 42 sec) 
Heartbeat CPU  0 instructions:  159000003 cycles:  103105962 heartbeat IPC: 0.84879 cumulative IPC: 1.10757 (Simulation time: 0 hr 3 min 43 sec) 
Heartbeat CPU  0 instructions:  160000000 cycles:  104290411 heartbeat IPC: 0.84427 cumulative IPC: 1.10184 (Simulation time: 0 hr 3 min 45 sec) 
Heartbeat CPU  0 instructions:  161000000 cycles:  105467688 heartbeat IPC: 0.84942 cumulative IPC: 1.09650 (Simulation time: 0 hr 3 min 46 sec) 
Heartbeat CPU  0 instructions:  162000000 cycles:  106656504 heartbeat IPC: 0.84117 cumulative IPC: 1.09116 (Simulation time: 0 hr 3 min 48 sec) 
Heartbeat CPU  0 instructions:  163000002 cycles:  107841361 heartbeat IPC: 0.84399 cumulative IPC: 1.08611 (Simulation time: 0 hr 3 min 50 sec) 
Heartbeat CPU  0 instructions:  164000000 cycles:  109010551 heartbeat IPC: 0.85529 cumulative IPC: 1.08155 (Simulation time: 0 hr 3 min 51 sec) 
Heartbeat CPU  0 instructions:  165000003 cycles:  110185040 heartbeat IPC: 0.85144 cumulative IPC: 1.07707 (Simulation time: 0 hr 3 min 53 sec) 
Heartbeat CPU  0 instructions:  166000001 cycles:  111362979 heartbeat IPC: 0.84894 cumulative IPC: 1.07270 (Simulation time: 0 hr 3 min 55 sec) 
Heartbeat CPU  0 instructions:  167000001 cycles:  112539043 heartbeat IPC: 0.85029 cumulative IPC: 1.06853 (Simulation time: 0 hr 3 min 56 sec) 
Heartbeat CPU  0 instructions:  168000000 cycles:  113722519 heartbeat IPC: 0.84497 cumulative IPC: 1.06439 (Simulation time: 0 hr 3 min 58 sec) 
Heartbeat CPU  0 instructions:  169000002 cycles:  114901766 heartbeat IPC: 0.84800 cumulative IPC: 1.06047 (Simulation time: 0 hr 4 min 0 sec) 
Heartbeat CPU  0 instructions:  170000002 cycles:  116079341 heartbeat IPC: 0.84920 cumulative IPC: 1.05671 (Simulation time: 0 hr 4 min 1 sec) 
Heartbeat CPU  0 instructions:  171000002 cycles:  117261045 heartbeat IPC: 0.84624 cumulative IPC: 1.05302 (Simulation time: 0 hr 4 min 3 sec) 
Heartbeat CPU  0 instructions:  172000000 cycles:  118438366 heartbeat IPC: 0.84938 cumulative IPC: 1.04953 (Simulation time: 0 hr 4 min 5 sec) 
Heartbeat CPU  0 instructions:  173000002 cycles:  119624561 heartbeat IPC: 0.84303 cumulative IPC: 1.04602 (Simulation time: 0 hr 4 min 6 sec) 
Heartbeat CPU  0 instructions:  174000003 cycles:  120805139 heartbeat IPC: 0.84704 cumulative IPC: 1.04271 (Simulation time: 0 hr 4 min 8 sec) 
Heartbeat CPU  0 instructions:  175000002 cycles:  121989620 heartbeat IPC: 0.84425 cumulative IPC: 1.03945 (Simulation time: 0 hr 4 min 9 sec) 
Heartbeat CPU  0 instructions:  176000000 cycles:  123173576 heartbeat IPC: 0.84462 cumulative IPC: 1.03631 (Simulation time: 0 hr 4 min 11 sec) 
Heartbeat CPU  0 instructions:  177000003 cycles:  124361750 heartbeat IPC: 0.84163 cumulative IPC: 1.03320 (Simulation time: 0 hr 4 min 13 sec) 
Heartbeat CPU  0 instructions:  178000000 cycles:  125543576 heartbeat IPC: 0.84615 cumulative IPC: 1.03028 (Simulation time: 0 hr 4 min 14 sec) 
Heartbeat CPU  0 instructions:  179000002 cycles:  126729431 heartbeat IPC: 0.84328 cumulative IPC: 1.02740 (Simulation time: 0 hr 4 min 16 sec) 
Heartbeat CPU  0 instructions:  180000000 cycles:  127913532 heartbeat IPC: 0.84452 cumulative IPC: 1.02462 (Simulation time: 0 hr 4 min 18 sec) 
Heartbeat CPU  0 instructions:  181000003 cycles:  129092506 heartbeat IPC: 0.84820 cumulative IPC: 1.02200 (Simulation time: 0 hr 4 min 19 sec) 
Heartbeat CPU  0 instructions:  182000002 cycles:  130279046 heartbeat IPC: 0.84279 cumulative IPC: 1.01936 (Simulation time: 0 hr 4 min 21 sec) 
Heartbeat CPU  0 instructions:  183000000 cycles:  131459538 heartbeat IPC: 0.84710 cumulative IPC: 1.01687 (Simulation time: 0 hr 4 min 23 sec) 
Heartbeat CPU  0 instructions:  184000000 cycles:  132632103 heartbeat IPC: 0.85283 cumulative IPC: 1.01454 (Simulation time: 0 hr 4 min 24 sec) 
Heartbeat CPU  0 instructions:  185000003 cycles:  133813041 heartbeat IPC: 0.84679 cumulative IPC: 1.01218 (Simulation time: 0 hr 4 min 26 sec) 
Heartbeat CPU  0 instructions:  186000001 cycles:  134987750 heartbeat IPC: 0.85127 cumulative IPC: 1.00996 (Simulation time: 0 hr 4 min 28 sec) 
Heartbeat CPU  0 instructions:  187000002 cycles:  136180410 heartbeat IPC: 0.83846 cumulative IPC: 1.00759 (Simulation time: 0 hr 4 min 29 sec) 
Heartbeat CPU  0 instructions:  188000000 cycles:  137360465 heartbeat IPC: 0.84742 cumulative IPC: 1.00543 (Simulation time: 0 hr 4 min 31 sec) 
Heartbeat CPU  0 instructions:  189000001 cycles:  138544142 heartbeat IPC: 0.84483 cumulative IPC: 1.00329 (Simulation time: 0 hr 4 min 32 sec) 
Heartbeat CPU  0 instructions:  190000003 cycles:  139717470 heartbeat IPC: 0.85228 cumulative IPC: 1.00132 (Simulation time: 0 hr 4 min 34 sec) 
Heartbeat CPU  0 instructions:  191000002 cycles:  140899077 heartbeat IPC: 0.84630 cumulative IPC: 0.99931 (Simulation time: 0 hr 4 min 36 sec) 
Heartbeat CPU  0 instructions:  192000000 cycles:  142054977 heartbeat IPC: 0.86513 cumulative IPC: 0.99763 (Simulation time: 0 hr 4 min 37 sec) 
Heartbeat CPU  0 instructions:  193000003 cycles:  142961973 heartbeat IPC: 1.10254 cumulative IPC: 0.99865 (Simulation time: 0 hr 4 min 39 sec) 
Heartbeat CPU  0 instructions:  194000002 cycles:  146985136 heartbeat IPC: 0.24856 cumulative IPC: 0.96759 (Simulation time: 0 hr 4 min 42 sec) 
Heartbeat CPU  0 instructions:  195000000 cycles:  150407432 heartbeat IPC: 0.29220 cumulative IPC: 0.94460 (Simulation time: 0 hr 4 min 45 sec) 
Heartbeat CPU  0 instructions:  196000000 cycles:  151122098 heartbeat IPC: 1.39926 cumulative IPC: 0.94781 (Simulation time: 0 hr 4 min 47 sec) 
Heartbeat CPU  0 instructions:  197000000 cycles:  151842680 heartbeat IPC: 1.38777 cumulative IPC: 0.95092 (Simulation time: 0 hr 4 min 48 sec) 
Heartbeat CPU  0 instructions:  198000003 cycles:  152555530 heartbeat IPC: 1.40282 cumulative IPC: 0.95406 (Simulation time: 0 hr 4 min 50 sec) 
Heartbeat CPU  0 instructions:  199000002 cycles:  153265714 heartbeat IPC: 1.40808 cumulative IPC: 0.95717 (Simulation time: 0 hr 4 min 51 sec) 
Heartbeat CPU  0 instructions:  200000000 cycles:  153972947 heartbeat IPC: 1.41396 cumulative IPC: 0.96028 (Simulation time: 0 hr 4 min 53 sec) 
Finished CPU 0 instructions: 100000000 cycles: 104136821 cumulative IPC: 0.96028 (Simulation time: 0 hr 4 min 53 sec) 

ChampSim completed all CPUs

[ROI Statistics]
Core_0_instructions 100000000
Core_0_cycles 104136821
Core_0_IPC 0.96028

Core_0_branch_prediction_accuracy 99.15344
Core_0_branch_MPKI 0.35029
Core_0_average_ROB_occupancy_at_mispredict 249.75854

Core_0_L1D_total_access 49677097
Core_0_L1D_total_hit 47699686
Core_0_L1D_total_miss 1977411
Core_0_L1D_loads 23360995
Core_0_L1D_load_hit 22799926
Core_0_L1D_load_miss 561069
Core_0_L1D_RFOs 4489157
Core_0_L1D_RFO_hit 4174322
Core_0_L1D_RFO_miss 314835
Core_0_L1D_prefetches 21826945
Core_0_L1D_prefetch_hit 20725438
Core_0_L1D_prefetch_miss 1101507
Core_0_L1D_writebacks 0
Core_0_L1D_writeback_hit 0
Core_0_L1D_writeback_miss 0
Core_0_L1D_prefetch_requested 59237219
Core_0_L1D_prefetch_issued 57163759
Core_0_L1D_prefetch_useful 1623625
Core_0_L1D_prefetch_useless 1190220
Core_0_L1D_prefetch_late 163800
Core_0_L1D_average_miss_latency 9161363.60227

Core_0_L1I_total_access 22674718
Core_0_L1I_total_hit 22674498
Core_0_L1I_total_miss 220
Core_0_L1I_loads 22674718
Core_0_L1I_load_hit 22674498
Core_0_L1I_load_miss 220
Core_0_L1I_RFOs 0
Core_0_L1I_RFO_hit 0
Core_0_L1I_RFO_miss 0
Core_0_L1I_prefetches 0
Core_0_L1I_prefetch_hit 0
Core_0_L1I_prefetch_miss 0
Core_0_L1I_writebacks 0
Core_0_L1I_writeback_hit 0
Core_0_L1I_writeback_miss 0
Core_0_L1I_prefetch_requested 0
Core_0_L1I_prefetch_issued 0
Core_0_L1I_prefetch_useful 0
Core_0_L1I_prefetch_useless 0
Core_0_L1I_prefetch_late 0
Core_0_L1I_average_miss_latency 178.30000

Core_0_L2C_total_access 3660527
Core_0_L2C_total_hit 2561856
Core_0_L2C_total_miss 1098671
Core_0_L2C_loads 399132
Core_0_L2C_load_hit 333486
Core_0_L2C_load_miss 65646
Core_0_L2C_RFOs 314685
Core_0_L2C_RFO_hit 129203
Core_0_L2C_RFO_miss 185482
Core_0_L2C_prefetches 2387771
Core_0_L2C_prefetch_hit 1540343
Core_0_L2C_prefetch_miss 847428
Core_0_L2C_writebacks 558939
Core_0_L2C_writeback_hit 558824
Core_0_L2C_writeback_miss 115
Core_0_L2C_prefetch_requested 4030110
Core_0_L2C_prefetch_issued 3970652
Core_0_L2C_prefetch_useful 161731
Core_0_L2C_prefetch_useless 1204403
Core_0_L2C_prefetch_late 2796
Core_0_L2C_average_miss_latency 180.12280

Core_0_LLC_total_access 1981578
Core_0_LLC_total_hit 757884
Core_0_LLC_total_miss 1223694
Core_0_LLC_loads 62853
Core_0_LLC_load_hit 17660
Core_0_LLC_load_miss 45193
Core_0_LLC_RFOs 185481
Core_0_LLC_RFO_hit 15460
Core_0_LLC_RFO_miss 170021
Core_0_LLC_prefetches 1326607
Core_0_LLC_prefetch_hit 510916
Core_0_LLC_prefetch_miss 815691
Core_0_LLC_writebacks 406637
Core_0_LLC_writeback_hit 213848
Core_0_LLC_writeback_miss 192789
Core_0_LLC_prefetch_requested 1329803
Core_0_LLC_prefetch_issued 1308754
Core_0_LLC_prefetch_useful 41164
Core_0_LLC_prefetch_useless 1110477
Core_0_LLC_prefetch_late 484
Core_0_LLC_average_miss_latency 231.94380

Core_0_major_page_fault 0
Core_0_minor_page_fault 15627

CPU 0 L1D next line prefetcher final stats
CPU 0 L2C next line prefetcher final stats
LLC Next Line Prefetcher Final Stats: none
Channel_0_RQ_row_buffer_hit 355033
Channel_0_RQ_row_buffer_miss 675863
Channel_0_WQ_row_buffer_hit 61911
Channel_0_WQ_row_buffer_miss 326516
Channel_0_WQ_full 0
Channel_0_dbus_congested 462140

avg_congested_cycle 9
