*************************************************
   ChampSim Multicore Out-of-Order Simulator
   Last compiled: Dec 23 2023 14:46:34
*************************************************

trace_0 ./test_trace/437.leslie3d-134B.champsimtrace.xz
CPU 0 L1D next line prefetcher
Initialize SRRIP state
LLC Next Line Prefetcher
warmup_instructions 100000000
simulation_instructions 100000000
champsim_seed 218

num_cpus 1
cpu_freq 4000
dram_io_freq 2400
page_size 4096
block_size 64
max_read_per_cycle 8
max_fill_per_cycle 1
dram_channels 1
dram_ranks 1
dram_banks 8
dram_rows 65536
dram_columns 128
dram_row_size 8
dram_size 4096
dram_pages 1048576

fetch_width 6
decode_width 6
exec_width 4
lq_width 2
sq_width 2
retire_width 4
scheduler_size 128
branch_mispredict_penalty 20
rob_size 256
lq_size 72
sq_size 56
num_instr_destinations_sparc 4
num_instr_destinations 2
num_instr_sources 4

itlb_set 16
itlb_way 8
itlb_rq_size 16
itlb_wq_size 16
itlb_pq_size 0
itlb_mshr_size 8
itlb_latency 1

dtlb_set 16
dtlb_way 4
dtlb_rq_size 16
dtlb_wq_size 16
dtlb_pq_size 0
dtlb_mshr_size 8
dtlb_latency 1

stlb_set 128
stlb_way 12
stlb_rq_size 32
stlb_wq_size 32
stlb_pq_size 0
stlb_mshr_size 16
stlb_latency 8

l1i_size 32
l1i_set 64
l1i_way 8
l1i_rq_size 64
l1i_wq_size 64
l1i_pq_size 8
l1i_mshr_size 8
l1i_latency 1

l1d_size 32
l1d_set 64
l1d_way 8
l1d_rq_size 64
l1d_wq_size 64
l1d_pq_size 8
l1d_mshr_size 16
l1d_latency 4

l2c_size 512
l2c_set 1024
l2c_way 8
l2c_rq_size 32
l2c_wq_size 32
l2c_pq_size 16
l2c_mshr_size 32
l2c_latency 10

llc_size 2048
llc_set 2048
llc_way 16
llc_rq_size 32
llc_wq_size 32
llc_pq_size 32
llc_mshr_size 64
llc_latency 20

dram_channel_width 8
dram_wq_size 64
dram_rq_size 64
tRP 15
tRCD 15
tCAS 12.5
dram_dbus_turn_around_time 30
dram_write_high_wm 56
dram_write_low_wm 48
min_dram_writes_per_switch 16
dram_mtps 2400
dram_dbus_return_time 13


Heartbeat CPU  0 instructions:    1000002 cycles:     502356 heartbeat IPC: 1.99062 cumulative IPC: 1.99062 (Simulation time: 0 hr 0 min 1 sec) 
Heartbeat CPU  0 instructions:    2000001 cycles:     993932 heartbeat IPC: 2.03427 cumulative IPC: 2.01221 (Simulation time: 0 hr 0 min 3 sec) 
Heartbeat CPU  0 instructions:    3000001 cycles:    1490653 heartbeat IPC: 2.01320 cumulative IPC: 2.01254 (Simulation time: 0 hr 0 min 4 sec) 
Heartbeat CPU  0 instructions:    4000000 cycles:    1992258 heartbeat IPC: 1.99360 cumulative IPC: 2.00777 (Simulation time: 0 hr 0 min 6 sec) 
Heartbeat CPU  0 instructions:    5000000 cycles:    2494064 heartbeat IPC: 1.99280 cumulative IPC: 2.00476 (Simulation time: 0 hr 0 min 7 sec) 
Heartbeat CPU  0 instructions:    6000001 cycles:    2995804 heartbeat IPC: 1.99307 cumulative IPC: 2.00280 (Simulation time: 0 hr 0 min 9 sec) 
Heartbeat CPU  0 instructions:    7000000 cycles:    3482616 heartbeat IPC: 2.05418 cumulative IPC: 2.00998 (Simulation time: 0 hr 0 min 10 sec) 
Heartbeat CPU  0 instructions:    8000000 cycles:    3984354 heartbeat IPC: 1.99307 cumulative IPC: 2.00785 (Simulation time: 0 hr 0 min 11 sec) 
Heartbeat CPU  0 instructions:    9000001 cycles:    4485287 heartbeat IPC: 1.99628 cumulative IPC: 2.00656 (Simulation time: 0 hr 0 min 13 sec) 
Heartbeat CPU  0 instructions:   10000000 cycles:    4986949 heartbeat IPC: 1.99337 cumulative IPC: 2.00523 (Simulation time: 0 hr 0 min 14 sec) 
Heartbeat CPU  0 instructions:   11000001 cycles:    5480814 heartbeat IPC: 2.02485 cumulative IPC: 2.00700 (Simulation time: 0 hr 0 min 15 sec) 
Heartbeat CPU  0 instructions:   12000000 cycles:    5975536 heartbeat IPC: 2.02134 cumulative IPC: 2.00819 (Simulation time: 0 hr 0 min 17 sec) 
Heartbeat CPU  0 instructions:   13000003 cycles:    6477127 heartbeat IPC: 1.99366 cumulative IPC: 2.00706 (Simulation time: 0 hr 0 min 18 sec) 
Heartbeat CPU  0 instructions:   14000001 cycles:    6978513 heartbeat IPC: 1.99447 cumulative IPC: 2.00616 (Simulation time: 0 hr 0 min 19 sec) 
Heartbeat CPU  0 instructions:   15000003 cycles:    7479859 heartbeat IPC: 1.99463 cumulative IPC: 2.00539 (Simulation time: 0 hr 0 min 21 sec) 
Heartbeat CPU  0 instructions:   16000000 cycles:    7966995 heartbeat IPC: 2.05281 cumulative IPC: 2.00829 (Simulation time: 0 hr 0 min 22 sec) 
Heartbeat CPU  0 instructions:   17000001 cycles:    8468696 heartbeat IPC: 1.99322 cumulative IPC: 2.00739 (Simulation time: 0 hr 0 min 24 sec) 
Heartbeat CPU  0 instructions:   18000001 cycles:    8970026 heartbeat IPC: 1.99469 cumulative IPC: 2.00668 (Simulation time: 0 hr 0 min 25 sec) 
Heartbeat CPU  0 instructions:   19000003 cycles:    9471199 heartbeat IPC: 1.99532 cumulative IPC: 2.00608 (Simulation time: 0 hr 0 min 26 sec) 
Heartbeat CPU  0 instructions:   20000000 cycles:    9967718 heartbeat IPC: 2.01402 cumulative IPC: 2.00648 (Simulation time: 0 hr 0 min 28 sec) 
Heartbeat CPU  0 instructions:   21000001 cycles:   10459685 heartbeat IPC: 2.03266 cumulative IPC: 2.00771 (Simulation time: 0 hr 0 min 29 sec) 
Heartbeat CPU  0 instructions:   22000003 cycles:   10961500 heartbeat IPC: 1.99277 cumulative IPC: 2.00702 (Simulation time: 0 hr 0 min 30 sec) 
Heartbeat CPU  0 instructions:   23000001 cycles:   11463622 heartbeat IPC: 1.99154 cumulative IPC: 2.00635 (Simulation time: 0 hr 0 min 32 sec) 
Heartbeat CPU  0 instructions:   24000000 cycles:   11965129 heartbeat IPC: 1.99399 cumulative IPC: 2.00583 (Simulation time: 0 hr 0 min 33 sec) 
Heartbeat CPU  0 instructions:   25000003 cycles:   12451621 heartbeat IPC: 2.05554 cumulative IPC: 2.00777 (Simulation time: 0 hr 0 min 34 sec) 
Heartbeat CPU  0 instructions:   26000001 cycles:   12953456 heartbeat IPC: 1.99268 cumulative IPC: 2.00719 (Simulation time: 0 hr 0 min 36 sec) 
Heartbeat CPU  0 instructions:   27000003 cycles:   13455445 heartbeat IPC: 1.99208 cumulative IPC: 2.00662 (Simulation time: 0 hr 0 min 37 sec) 
Heartbeat CPU  0 instructions:   28000000 cycles:   13957273 heartbeat IPC: 1.99271 cumulative IPC: 2.00612 (Simulation time: 0 hr 0 min 39 sec) 
Heartbeat CPU  0 instructions:   29000002 cycles:   14454893 heartbeat IPC: 2.00957 cumulative IPC: 2.00624 (Simulation time: 0 hr 0 min 40 sec) 
Heartbeat CPU  0 instructions:   30000000 cycles:   14945199 heartbeat IPC: 2.03954 cumulative IPC: 2.00733 (Simulation time: 0 hr 0 min 41 sec) 
Heartbeat CPU  0 instructions:   31000002 cycles:   15446737 heartbeat IPC: 1.99387 cumulative IPC: 2.00690 (Simulation time: 0 hr 0 min 43 sec) 
Heartbeat CPU  0 instructions:   32000000 cycles:   15948156 heartbeat IPC: 1.99434 cumulative IPC: 2.00650 (Simulation time: 0 hr 0 min 44 sec) 
Heartbeat CPU  0 instructions:   33000001 cycles:   16450150 heartbeat IPC: 1.99206 cumulative IPC: 2.00606 (Simulation time: 0 hr 0 min 45 sec) 
Heartbeat CPU  0 instructions:   34000003 cycles:   16938879 heartbeat IPC: 2.04613 cumulative IPC: 2.00722 (Simulation time: 0 hr 0 min 47 sec) 
Heartbeat CPU  0 instructions:   35000000 cycles:   17438129 heartbeat IPC: 2.00300 cumulative IPC: 2.00710 (Simulation time: 0 hr 0 min 48 sec) 
Heartbeat CPU  0 instructions:   36000000 cycles:   17939379 heartbeat IPC: 1.99501 cumulative IPC: 2.00676 (Simulation time: 0 hr 0 min 49 sec) 
Heartbeat CPU  0 instructions:   37000003 cycles:   18441061 heartbeat IPC: 1.99330 cumulative IPC: 2.00639 (Simulation time: 0 hr 0 min 51 sec) 
Heartbeat CPU  0 instructions:   38000003 cycles:   18941847 heartbeat IPC: 1.99686 cumulative IPC: 2.00614 (Simulation time: 0 hr 0 min 52 sec) 
Heartbeat CPU  0 instructions:   39000003 cycles:   19429368 heartbeat IPC: 2.05119 cumulative IPC: 2.00727 (Simulation time: 0 hr 0 min 54 sec) 
Heartbeat CPU  0 instructions:   40000000 cycles:   19930436 heartbeat IPC: 1.99573 cumulative IPC: 2.00698 (Simulation time: 0 hr 0 min 55 sec) 
Heartbeat CPU  0 instructions:   41000001 cycles:   20432211 heartbeat IPC: 1.99293 cumulative IPC: 2.00664 (Simulation time: 0 hr 0 min 56 sec) 
Heartbeat CPU  0 instructions:   42000002 cycles:   20934114 heartbeat IPC: 1.99242 cumulative IPC: 2.00629 (Simulation time: 0 hr 0 min 58 sec) 
Heartbeat CPU  0 instructions:   43000003 cycles:   21425576 heartbeat IPC: 2.03475 cumulative IPC: 2.00695 (Simulation time: 0 hr 0 min 59 sec) 
Heartbeat CPU  0 instructions:   44000000 cycles:   21922447 heartbeat IPC: 2.01259 cumulative IPC: 2.00708 (Simulation time: 0 hr 1 min 0 sec) 
Heartbeat CPU  0 instructions:   45000001 cycles:   22424405 heartbeat IPC: 1.99220 cumulative IPC: 2.00674 (Simulation time: 0 hr 1 min 2 sec) 
Heartbeat CPU  0 instructions:   46000000 cycles:   22925761 heartbeat IPC: 1.99459 cumulative IPC: 2.00648 (Simulation time: 0 hr 1 min 3 sec) 
Heartbeat CPU  0 instructions:   47000002 cycles:   23427570 heartbeat IPC: 1.99279 cumulative IPC: 2.00618 (Simulation time: 0 hr 1 min 4 sec) 
Heartbeat CPU  0 instructions:   48000000 cycles:   23914147 heartbeat IPC: 2.05517 cumulative IPC: 2.00718 (Simulation time: 0 hr 1 min 6 sec) 
Heartbeat CPU  0 instructions:   49000002 cycles:   24415989 heartbeat IPC: 1.99266 cumulative IPC: 2.00688 (Simulation time: 0 hr 1 min 7 sec) 
Heartbeat CPU  0 instructions:   50000003 cycles:   24917321 heartbeat IPC: 1.99469 cumulative IPC: 2.00664 (Simulation time: 0 hr 1 min 8 sec) 
Heartbeat CPU  0 instructions:   51000003 cycles:   25418597 heartbeat IPC: 1.99491 cumulative IPC: 2.00641 (Simulation time: 0 hr 1 min 10 sec) 
Heartbeat CPU  0 instructions:   52000000 cycles:   25912064 heartbeat IPC: 2.02647 cumulative IPC: 2.00679 (Simulation time: 0 hr 1 min 11 sec) 
Heartbeat CPU  0 instructions:   53000001 cycles:   26407132 heartbeat IPC: 2.01993 cumulative IPC: 2.00703 (Simulation time: 0 hr 1 min 13 sec) 
Heartbeat CPU  0 instructions:   54000003 cycles:   26908772 heartbeat IPC: 1.99347 cumulative IPC: 2.00678 (Simulation time: 0 hr 1 min 14 sec) 
Heartbeat CPU  0 instructions:   55000003 cycles:   27410298 heartbeat IPC: 1.99391 cumulative IPC: 2.00655 (Simulation time: 0 hr 1 min 15 sec) 
Heartbeat CPU  0 instructions:   56000000 cycles:   27911467 heartbeat IPC: 1.99533 cumulative IPC: 2.00634 (Simulation time: 0 hr 1 min 17 sec) 
Heartbeat CPU  0 instructions:   57000002 cycles:   28398435 heartbeat IPC: 2.05353 cumulative IPC: 2.00715 (Simulation time: 0 hr 1 min 18 sec) 
Heartbeat CPU  0 instructions:   58000003 cycles:   28899956 heartbeat IPC: 1.99394 cumulative IPC: 2.00692 (Simulation time: 0 hr 1 min 19 sec) 
Heartbeat CPU  0 instructions:   59000001 cycles:   29401574 heartbeat IPC: 1.99354 cumulative IPC: 2.00670 (Simulation time: 0 hr 1 min 21 sec) 
Heartbeat CPU  0 instructions:   60000000 cycles:   29902685 heartbeat IPC: 1.99556 cumulative IPC: 2.00651 (Simulation time: 0 hr 1 min 22 sec) 
Heartbeat CPU  0 instructions:   61000000 cycles:   30398641 heartbeat IPC: 2.01631 cumulative IPC: 2.00667 (Simulation time: 0 hr 1 min 23 sec) 
Heartbeat CPU  0 instructions:   62000001 cycles:   30890937 heartbeat IPC: 2.03130 cumulative IPC: 2.00706 (Simulation time: 0 hr 1 min 25 sec) 
Heartbeat CPU  0 instructions:   63000001 cycles:   31392699 heartbeat IPC: 1.99298 cumulative IPC: 2.00684 (Simulation time: 0 hr 1 min 26 sec) 
Heartbeat CPU  0 instructions:   64000000 cycles:   31894734 heartbeat IPC: 1.99189 cumulative IPC: 2.00660 (Simulation time: 0 hr 1 min 28 sec) 
Heartbeat CPU  0 instructions:   65000000 cycles:   32396417 heartbeat IPC: 1.99329 cumulative IPC: 2.00639 (Simulation time: 0 hr 1 min 29 sec) 
Heartbeat CPU  0 instructions:   66000003 cycles:   32882610 heartbeat IPC: 2.05680 cumulative IPC: 2.00714 (Simulation time: 0 hr 1 min 30 sec) 
Heartbeat CPU  0 instructions:   67000000 cycles:   33384418 heartbeat IPC: 1.99279 cumulative IPC: 2.00692 (Simulation time: 0 hr 1 min 32 sec) 
Heartbeat CPU  0 instructions:   68000000 cycles:   33886186 heartbeat IPC: 1.99295 cumulative IPC: 2.00672 (Simulation time: 0 hr 1 min 33 sec) 
Heartbeat CPU  0 instructions:   69000001 cycles:   34388194 heartbeat IPC: 1.99200 cumulative IPC: 2.00650 (Simulation time: 0 hr 1 min 34 sec) 
Heartbeat CPU  0 instructions:   70000000 cycles:   34885499 heartbeat IPC: 2.01084 cumulative IPC: 2.00656 (Simulation time: 0 hr 1 min 36 sec) 
Heartbeat CPU  0 instructions:   71000001 cycles:   35375964 heartbeat IPC: 2.03888 cumulative IPC: 2.00701 (Simulation time: 0 hr 1 min 37 sec) 
Heartbeat CPU  0 instructions:   72000000 cycles:   35877835 heartbeat IPC: 1.99254 cumulative IPC: 2.00681 (Simulation time: 0 hr 1 min 38 sec) 
Heartbeat CPU  0 instructions:   73000002 cycles:   36378933 heartbeat IPC: 1.99562 cumulative IPC: 2.00666 (Simulation time: 0 hr 1 min 40 sec) 
Heartbeat CPU  0 instructions:   74000003 cycles:   36880677 heartbeat IPC: 1.99305 cumulative IPC: 2.00647 (Simulation time: 0 hr 1 min 41 sec) 
Heartbeat CPU  0 instructions:   75000001 cycles:   37369397 heartbeat IPC: 2.04616 cumulative IPC: 2.00699 (Simulation time: 0 hr 1 min 43 sec) 
Heartbeat CPU  0 instructions:   76000000 cycles:   37868765 heartbeat IPC: 2.00253 cumulative IPC: 2.00693 (Simulation time: 0 hr 1 min 44 sec) 
Heartbeat CPU  0 instructions:   77000000 cycles:   38370498 heartbeat IPC: 1.99309 cumulative IPC: 2.00675 (Simulation time: 0 hr 1 min 45 sec) 
Heartbeat CPU  0 instructions:   78000003 cycles:   38871970 heartbeat IPC: 1.99414 cumulative IPC: 2.00659 (Simulation time: 0 hr 1 min 47 sec) 
Heartbeat CPU  0 instructions:   79000001 cycles:   39372327 heartbeat IPC: 1.99857 cumulative IPC: 2.00649 (Simulation time: 0 hr 1 min 48 sec) 
Heartbeat CPU  0 instructions:   80000000 cycles:   39860864 heartbeat IPC: 2.04693 cumulative IPC: 2.00698 (Simulation time: 0 hr 1 min 49 sec) 
Heartbeat CPU  0 instructions:   81000003 cycles:   40361841 heartbeat IPC: 1.99611 cumulative IPC: 2.00685 (Simulation time: 0 hr 1 min 51 sec) 
Heartbeat CPU  0 instructions:   82000003 cycles:   40863378 heartbeat IPC: 1.99387 cumulative IPC: 2.00669 (Simulation time: 0 hr 1 min 52 sec) 
Heartbeat CPU  0 instructions:   83000001 cycles:   41365037 heartbeat IPC: 1.99338 cumulative IPC: 2.00653 (Simulation time: 0 hr 1 min 53 sec) 
Heartbeat CPU  0 instructions:   84000000 cycles:   41856240 heartbeat IPC: 2.03582 cumulative IPC: 2.00687 (Simulation time: 0 hr 1 min 55 sec) 
Heartbeat CPU  0 instructions:   85000002 cycles:   42353726 heartbeat IPC: 2.01011 cumulative IPC: 2.00691 (Simulation time: 0 hr 1 min 56 sec) 
Heartbeat CPU  0 instructions:   86000002 cycles:   42855605 heartbeat IPC: 1.99251 cumulative IPC: 2.00674 (Simulation time: 0 hr 1 min 58 sec) 
Heartbeat CPU  0 instructions:   87000002 cycles:   43357137 heartbeat IPC: 1.99389 cumulative IPC: 2.00659 (Simulation time: 0 hr 1 min 59 sec) 
Heartbeat CPU  0 instructions:   88000000 cycles:   43859000 heartbeat IPC: 1.99257 cumulative IPC: 2.00643 (Simulation time: 0 hr 2 min 0 sec) 
Heartbeat CPU  0 instructions:   89000003 cycles:   44345628 heartbeat IPC: 2.05496 cumulative IPC: 2.00696 (Simulation time: 0 hr 2 min 2 sec) 
Heartbeat CPU  0 instructions:   90000002 cycles:   44847684 heartbeat IPC: 1.99181 cumulative IPC: 2.00679 (Simulation time: 0 hr 2 min 3 sec) 
Heartbeat CPU  0 instructions:   91000000 cycles:   45349047 heartbeat IPC: 1.99456 cumulative IPC: 2.00666 (Simulation time: 0 hr 2 min 4 sec) 
Heartbeat CPU  0 instructions:   92000000 cycles:   45850681 heartbeat IPC: 1.99349 cumulative IPC: 2.00651 (Simulation time: 0 hr 2 min 6 sec) 
Heartbeat CPU  0 instructions:   93000002 cycles:   46343471 heartbeat IPC: 2.02927 cumulative IPC: 2.00676 (Simulation time: 0 hr 2 min 7 sec) 
Heartbeat CPU  0 instructions:   94000003 cycles:   46839213 heartbeat IPC: 2.01718 cumulative IPC: 2.00687 (Simulation time: 0 hr 2 min 8 sec) 
Heartbeat CPU  0 instructions:   95000003 cycles:   47340780 heartbeat IPC: 1.99375 cumulative IPC: 2.00673 (Simulation time: 0 hr 2 min 10 sec) 
Heartbeat CPU  0 instructions:   96000000 cycles:   47842407 heartbeat IPC: 1.99351 cumulative IPC: 2.00659 (Simulation time: 0 hr 2 min 11 sec) 
Heartbeat CPU  0 instructions:   97000000 cycles:   48343735 heartbeat IPC: 1.99470 cumulative IPC: 2.00646 (Simulation time: 0 hr 2 min 13 sec) 
Heartbeat CPU  0 instructions:   98000000 cycles:   48830423 heartbeat IPC: 2.05470 cumulative IPC: 2.00695 (Simulation time: 0 hr 2 min 14 sec) 
Heartbeat CPU  0 instructions:   99000002 cycles:   49332036 heartbeat IPC: 1.99357 cumulative IPC: 2.00681 (Simulation time: 0 hr 2 min 15 sec) 
Heartbeat CPU  0 instructions:  100000000 cycles:   49833608 heartbeat IPC: 1.99373 cumulative IPC: 2.00668 (Simulation time: 0 hr 2 min 17 sec) 

Warmup complete CPU  0 instructions:  100000003 cycles:   49833609 (Simulation time: 0 hr 2 min 17 sec) 

Heartbeat CPU  0 instructions:  101000001 cycles:   50689085 heartbeat IPC: 1.16894 cumulative IPC: 1.16894 (Simulation time: 0 hr 2 min 18 sec) 
Heartbeat CPU  0 instructions:  102000002 cycles:   51548810 heartbeat IPC: 1.16316 cumulative IPC: 1.16604 (Simulation time: 0 hr 2 min 20 sec) 
Heartbeat CPU  0 instructions:  103000001 cycles:   52419922 heartbeat IPC: 1.14796 cumulative IPC: 1.15995 (Simulation time: 0 hr 2 min 21 sec) 
Heartbeat CPU  0 instructions:  104000000 cycles:   53288792 heartbeat IPC: 1.15092 cumulative IPC: 1.15768 (Simulation time: 0 hr 2 min 23 sec) 
Heartbeat CPU  0 instructions:  105000003 cycles:   54131305 heartbeat IPC: 1.18693 cumulative IPC: 1.16341 (Simulation time: 0 hr 2 min 24 sec) 
Heartbeat CPU  0 instructions:  106000001 cycles:   54982484 heartbeat IPC: 1.17484 cumulative IPC: 1.16530 (Simulation time: 0 hr 2 min 26 sec) 
Heartbeat CPU  0 instructions:  107000002 cycles:   55848189 heartbeat IPC: 1.15513 cumulative IPC: 1.16384 (Simulation time: 0 hr 2 min 27 sec) 
Heartbeat CPU  0 instructions:  108000000 cycles:   56715135 heartbeat IPC: 1.15347 cumulative IPC: 1.16253 (Simulation time: 0 hr 2 min 29 sec) 
Heartbeat CPU  0 instructions:  109000003 cycles:   57582926 heartbeat IPC: 1.15235 cumulative IPC: 1.16139 (Simulation time: 0 hr 2 min 30 sec) 
Heartbeat CPU  0 instructions:  110000001 cycles:   58436853 heartbeat IPC: 1.17106 cumulative IPC: 1.16235 (Simulation time: 0 hr 2 min 32 sec) 
Heartbeat CPU  0 instructions:  111000003 cycles:   59284913 heartbeat IPC: 1.17916 cumulative IPC: 1.16386 (Simulation time: 0 hr 2 min 34 sec) 
Heartbeat CPU  0 instructions:  112000000 cycles:   60154887 heartbeat IPC: 1.14946 cumulative IPC: 1.16265 (Simulation time: 0 hr 2 min 35 sec) 
Heartbeat CPU  0 instructions:  113000002 cycles:   61019891 heartbeat IPC: 1.15607 cumulative IPC: 1.16214 (Simulation time: 0 hr 2 min 37 sec) 
Heartbeat CPU  0 instructions:  114000002 cycles:   61882794 heartbeat IPC: 1.15888 cumulative IPC: 1.16190 (Simulation time: 0 hr 2 min 38 sec) 
Heartbeat CPU  0 instructions:  115000000 cycles:   62735765 heartbeat IPC: 1.17237 cumulative IPC: 1.16260 (Simulation time: 0 hr 2 min 40 sec) 
Heartbeat CPU  0 instructions:  116000000 cycles:   63591699 heartbeat IPC: 1.16831 cumulative IPC: 1.16295 (Simulation time: 0 hr 2 min 41 sec) 
Heartbeat CPU  0 instructions:  117000002 cycles:   64453662 heartbeat IPC: 1.16014 cumulative IPC: 1.16279 (Simulation time: 0 hr 2 min 43 sec) 
Heartbeat CPU  0 instructions:  118000001 cycles:   65316676 heartbeat IPC: 1.15873 cumulative IPC: 1.16256 (Simulation time: 0 hr 2 min 44 sec) 
Heartbeat CPU  0 instructions:  119000002 cycles:   66183414 heartbeat IPC: 1.15375 cumulative IPC: 1.16209 (Simulation time: 0 hr 2 min 46 sec) 
Heartbeat CPU  0 instructions:  120000000 cycles:   67045714 heartbeat IPC: 1.15969 cumulative IPC: 1.16197 (Simulation time: 0 hr 2 min 47 sec) 
Heartbeat CPU  0 instructions:  121000001 cycles:   67901413 heartbeat IPC: 1.16864 cumulative IPC: 1.16229 (Simulation time: 0 hr 2 min 49 sec) 
Heartbeat CPU  0 instructions:  122000002 cycles:   68758655 heartbeat IPC: 1.16653 cumulative IPC: 1.16248 (Simulation time: 0 hr 2 min 50 sec) 
Heartbeat CPU  0 instructions:  123000000 cycles:   69620913 heartbeat IPC: 1.15974 cumulative IPC: 1.16236 (Simulation time: 0 hr 2 min 52 sec) 
Heartbeat CPU  0 instructions:  124000000 cycles:   70489775 heartbeat IPC: 1.15093 cumulative IPC: 1.16188 (Simulation time: 0 hr 2 min 54 sec) 
Heartbeat CPU  0 instructions:  125000000 cycles:   71361520 heartbeat IPC: 1.14712 cumulative IPC: 1.16128 (Simulation time: 0 hr 2 min 55 sec) 
Heartbeat CPU  0 instructions:  126000000 cycles:   72206416 heartbeat IPC: 1.18358 cumulative IPC: 1.16212 (Simulation time: 0 hr 2 min 57 sec) 
Heartbeat CPU  0 instructions:  127000000 cycles:   73060079 heartbeat IPC: 1.17142 cumulative IPC: 1.16247 (Simulation time: 0 hr 2 min 58 sec) 
Heartbeat CPU  0 instructions:  128000000 cycles:   73918622 heartbeat IPC: 1.16476 cumulative IPC: 1.16255 (Simulation time: 0 hr 3 min 0 sec) 
Heartbeat CPU  0 instructions:  129000002 cycles:   74783031 heartbeat IPC: 1.15686 cumulative IPC: 1.16235 (Simulation time: 0 hr 3 min 1 sec) 
Heartbeat CPU  0 instructions:  130000002 cycles:   75655909 heartbeat IPC: 1.14564 cumulative IPC: 1.16179 (Simulation time: 0 hr 3 min 3 sec) 
Heartbeat CPU  0 instructions:  131000002 cycles:   76505319 heartbeat IPC: 1.17729 cumulative IPC: 1.16228 (Simulation time: 0 hr 3 min 4 sec) 
Heartbeat CPU  0 instructions:  132000000 cycles:   77355628 heartbeat IPC: 1.17604 cumulative IPC: 1.16271 (Simulation time: 0 hr 3 min 6 sec) 
Heartbeat CPU  0 instructions:  133000000 cycles:   78212966 heartbeat IPC: 1.16640 cumulative IPC: 1.16282 (Simulation time: 0 hr 3 min 7 sec) 
Heartbeat CPU  0 instructions:  134000000 cycles:   79079991 heartbeat IPC: 1.15337 cumulative IPC: 1.16254 (Simulation time: 0 hr 3 min 9 sec) 
Heartbeat CPU  0 instructions:  135000002 cycles:   79953238 heartbeat IPC: 1.14515 cumulative IPC: 1.16203 (Simulation time: 0 hr 3 min 10 sec) 
Heartbeat CPU  0 instructions:  136000000 cycles:   80804029 heartbeat IPC: 1.17537 cumulative IPC: 1.16240 (Simulation time: 0 hr 3 min 12 sec) 
Heartbeat CPU  0 instructions:  137000001 cycles:   81655358 heartbeat IPC: 1.17464 cumulative IPC: 1.16273 (Simulation time: 0 hr 3 min 14 sec) 
Heartbeat CPU  0 instructions:  138000003 cycles:   82511598 heartbeat IPC: 1.16790 cumulative IPC: 1.16286 (Simulation time: 0 hr 3 min 15 sec) 
Heartbeat CPU  0 instructions:  139000003 cycles:   83376833 heartbeat IPC: 1.15576 cumulative IPC: 1.16268 (Simulation time: 0 hr 3 min 17 sec) 
Heartbeat CPU  0 instructions:  140000000 cycles:   84249240 heartbeat IPC: 1.14625 cumulative IPC: 1.16226 (Simulation time: 0 hr 3 min 18 sec) 
Heartbeat CPU  0 instructions:  141000003 cycles:   85102111 heartbeat IPC: 1.17251 cumulative IPC: 1.16251 (Simulation time: 0 hr 3 min 20 sec) 
Heartbeat CPU  0 instructions:  142000000 cycles:   85951249 heartbeat IPC: 1.17766 cumulative IPC: 1.16287 (Simulation time: 0 hr 3 min 21 sec) 
Heartbeat CPU  0 instructions:  143000000 cycles:   86805178 heartbeat IPC: 1.17106 cumulative IPC: 1.16306 (Simulation time: 0 hr 3 min 23 sec) 
Heartbeat CPU  0 instructions:  144000000 cycles:   87669904 heartbeat IPC: 1.15644 cumulative IPC: 1.16290 (Simulation time: 0 hr 3 min 24 sec) 
Heartbeat CPU  0 instructions:  145000002 cycles:   88542899 heartbeat IPC: 1.14548 cumulative IPC: 1.16251 (Simulation time: 0 hr 3 min 26 sec) 
Heartbeat CPU  0 instructions:  146000002 cycles:   89404902 heartbeat IPC: 1.16009 cumulative IPC: 1.16246 (Simulation time: 0 hr 3 min 27 sec) 
Heartbeat CPU  0 instructions:  147000002 cycles:   90323941 heartbeat IPC: 1.08809 cumulative IPC: 1.16077 (Simulation time: 0 hr 3 min 29 sec) 
Heartbeat CPU  0 instructions:  148000000 cycles:   91600568 heartbeat IPC: 0.78331 cumulative IPC: 1.14923 (Simulation time: 0 hr 3 min 31 sec) 
Heartbeat CPU  0 instructions:  149000002 cycles:   92881653 heartbeat IPC: 0.78059 cumulative IPC: 1.13826 (Simulation time: 0 hr 3 min 32 sec) 
Heartbeat CPU  0 instructions:  150000002 cycles:   94159772 heartbeat IPC: 0.78240 cumulative IPC: 1.12800 (Simulation time: 0 hr 3 min 34 sec) 
Heartbeat CPU  0 instructions:  151000000 cycles:   95429006 heartbeat IPC: 0.78788 cumulative IPC: 1.11853 (Simulation time: 0 hr 3 min 36 sec) 
Heartbeat CPU  0 instructions:  152000000 cycles:   96710013 heartbeat IPC: 0.78064 cumulative IPC: 1.10930 (Simulation time: 0 hr 3 min 37 sec) 
Heartbeat CPU  0 instructions:  153000003 cycles:   97999057 heartbeat IPC: 0.77577 cumulative IPC: 1.10037 (Simulation time: 0 hr 3 min 39 sec) 
Heartbeat CPU  0 instructions:  154000002 cycles:   99288020 heartbeat IPC: 0.77582 cumulative IPC: 1.09191 (Simulation time: 0 hr 3 min 41 sec) 
Heartbeat CPU  0 instructions:  155000003 cycles:  100583034 heartbeat IPC: 0.77219 cumulative IPC: 1.08376 (Simulation time: 0 hr 3 min 42 sec) 
Heartbeat CPU  0 instructions:  156000000 cycles:  101878872 heartbeat IPC: 0.77170 cumulative IPC: 1.07599 (Simulation time: 0 hr 3 min 44 sec) 
Heartbeat CPU  0 instructions:  157000003 cycles:  103173758 heartbeat IPC: 0.77227 cumulative IPC: 1.06861 (Simulation time: 0 hr 3 min 46 sec) 
Heartbeat CPU  0 instructions:  158000000 cycles:  104458571 heartbeat IPC: 0.77832 cumulative IPC: 1.06179 (Simulation time: 0 hr 3 min 47 sec) 
Heartbeat CPU  0 instructions:  159000003 cycles:  105750609 heartbeat IPC: 0.77397 cumulative IPC: 1.05514 (Simulation time: 0 hr 3 min 49 sec) 
Heartbeat CPU  0 instructions:  160000000 cycles:  107047812 heartbeat IPC: 0.77089 cumulative IPC: 1.04869 (Simulation time: 0 hr 3 min 51 sec) 
Heartbeat CPU  0 instructions:  161000000 cycles:  108333013 heartbeat IPC: 0.77809 cumulative IPC: 1.04275 (Simulation time: 0 hr 3 min 53 sec) 
Heartbeat CPU  0 instructions:  162000000 cycles:  109637110 heartbeat IPC: 0.76681 cumulative IPC: 1.03673 (Simulation time: 0 hr 3 min 54 sec) 
Heartbeat CPU  0 instructions:  163000002 cycles:  110930470 heartbeat IPC: 0.77318 cumulative IPC: 1.03115 (Simulation time: 0 hr 3 min 56 sec) 
Heartbeat CPU  0 instructions:  164000000 cycles:  112211845 heartbeat IPC: 0.78041 cumulative IPC: 1.02600 (Simulation time: 0 hr 3 min 58 sec) 
Heartbeat CPU  0 instructions:  165000003 cycles:  113505169 heartbeat IPC: 0.77320 cumulative IPC: 1.02086 (Simulation time: 0 hr 3 min 59 sec) 
Heartbeat CPU  0 instructions:  166000001 cycles:  114798629 heartbeat IPC: 0.77312 cumulative IPC: 1.01593 (Simulation time: 0 hr 4 min 1 sec) 
Heartbeat CPU  0 instructions:  167000001 cycles:  116080267 heartbeat IPC: 0.78025 cumulative IPC: 1.01137 (Simulation time: 0 hr 4 min 3 sec) 
Heartbeat CPU  0 instructions:  168000000 cycles:  117371541 heartbeat IPC: 0.77443 cumulative IPC: 1.00684 (Simulation time: 0 hr 4 min 4 sec) 
Heartbeat CPU  0 instructions:  169000002 cycles:  118664464 heartbeat IPC: 0.77344 cumulative IPC: 1.00246 (Simulation time: 0 hr 4 min 6 sec) 
Heartbeat CPU  0 instructions:  170000002 cycles:  119946594 heartbeat IPC: 0.77995 cumulative IPC: 0.99839 (Simulation time: 0 hr 4 min 8 sec) 
Heartbeat CPU  0 instructions:  171000002 cycles:  121228110 heartbeat IPC: 0.78033 cumulative IPC: 0.99447 (Simulation time: 0 hr 4 min 9 sec) 
Heartbeat CPU  0 instructions:  172000000 cycles:  122511510 heartbeat IPC: 0.77918 cumulative IPC: 0.99067 (Simulation time: 0 hr 4 min 11 sec) 
Heartbeat CPU  0 instructions:  173000002 cycles:  123786256 heartbeat IPC: 0.78447 cumulative IPC: 0.98712 (Simulation time: 0 hr 4 min 13 sec) 
Heartbeat CPU  0 instructions:  174000003 cycles:  125074990 heartbeat IPC: 0.77596 cumulative IPC: 0.98350 (Simulation time: 0 hr 4 min 15 sec) 
Heartbeat CPU  0 instructions:  175000002 cycles:  126370581 heartbeat IPC: 0.77185 cumulative IPC: 0.97992 (Simulation time: 0 hr 4 min 16 sec) 
Heartbeat CPU  0 instructions:  176000000 cycles:  127653323 heartbeat IPC: 0.77958 cumulative IPC: 0.97662 (Simulation time: 0 hr 4 min 18 sec) 
Heartbeat CPU  0 instructions:  177000003 cycles:  128952705 heartbeat IPC: 0.76960 cumulative IPC: 0.97322 (Simulation time: 0 hr 4 min 20 sec) 
Heartbeat CPU  0 instructions:  178000000 cycles:  130245104 heartbeat IPC: 0.77375 cumulative IPC: 0.97001 (Simulation time: 0 hr 4 min 21 sec) 
Heartbeat CPU  0 instructions:  179000002 cycles:  131531639 heartbeat IPC: 0.77728 cumulative IPC: 0.96698 (Simulation time: 0 hr 4 min 23 sec) 
Heartbeat CPU  0 instructions:  180000000 cycles:  132810111 heartbeat IPC: 0.78218 cumulative IPC: 0.96413 (Simulation time: 0 hr 4 min 25 sec) 
Heartbeat CPU  0 instructions:  181000003 cycles:  134097984 heartbeat IPC: 0.77648 cumulative IPC: 0.96126 (Simulation time: 0 hr 4 min 26 sec) 
Heartbeat CPU  0 instructions:  182000002 cycles:  135386752 heartbeat IPC: 0.77593 cumulative IPC: 0.95847 (Simulation time: 0 hr 4 min 28 sec) 
Heartbeat CPU  0 instructions:  183000000 cycles:  136666396 heartbeat IPC: 0.78147 cumulative IPC: 0.95586 (Simulation time: 0 hr 4 min 30 sec) 
Heartbeat CPU  0 instructions:  184000000 cycles:  137954863 heartbeat IPC: 0.77612 cumulative IPC: 0.95323 (Simulation time: 0 hr 4 min 32 sec) 
Heartbeat CPU  0 instructions:  185000003 cycles:  139247987 heartbeat IPC: 0.77332 cumulative IPC: 0.95063 (Simulation time: 0 hr 4 min 33 sec) 
Heartbeat CPU  0 instructions:  186000001 cycles:  140527243 heartbeat IPC: 0.78170 cumulative IPC: 0.94825 (Simulation time: 0 hr 4 min 35 sec) 
Heartbeat CPU  0 instructions:  187000002 cycles:  141823766 heartbeat IPC: 0.77129 cumulative IPC: 0.94575 (Simulation time: 0 hr 4 min 37 sec) 
Heartbeat CPU  0 instructions:  188000000 cycles:  143110571 heartbeat IPC: 0.77712 cumulative IPC: 0.94343 (Simulation time: 0 hr 4 min 38 sec) 
Heartbeat CPU  0 instructions:  189000001 cycles:  144398377 heartbeat IPC: 0.77652 cumulative IPC: 0.94115 (Simulation time: 0 hr 4 min 40 sec) 
Heartbeat CPU  0 instructions:  190000003 cycles:  145694760 heartbeat IPC: 0.77138 cumulative IPC: 0.93886 (Simulation time: 0 hr 4 min 42 sec) 
Heartbeat CPU  0 instructions:  191000002 cycles:  146981370 heartbeat IPC: 0.77724 cumulative IPC: 0.93672 (Simulation time: 0 hr 4 min 43 sec) 
Heartbeat CPU  0 instructions:  192000000 cycles:  148231282 heartbeat IPC: 0.80005 cumulative IPC: 0.93498 (Simulation time: 0 hr 4 min 45 sec) 
Heartbeat CPU  0 instructions:  193000003 cycles:  149130777 heartbeat IPC: 1.11174 cumulative IPC: 0.93658 (Simulation time: 0 hr 4 min 47 sec) 
Heartbeat CPU  0 instructions:  194000001 cycles:  153112536 heartbeat IPC: 0.25114 cumulative IPC: 0.91016 (Simulation time: 0 hr 4 min 50 sec) 
Heartbeat CPU  0 instructions:  195000000 cycles:  156469777 heartbeat IPC: 0.29786 cumulative IPC: 0.89088 (Simulation time: 0 hr 4 min 53 sec) 
Heartbeat CPU  0 instructions:  196000000 cycles:  157179458 heartbeat IPC: 1.40908 cumulative IPC: 0.89431 (Simulation time: 0 hr 4 min 54 sec) 
Heartbeat CPU  0 instructions:  197000000 cycles:  157890679 heartbeat IPC: 1.40603 cumulative IPC: 0.89767 (Simulation time: 0 hr 4 min 56 sec) 
Heartbeat CPU  0 instructions:  198000003 cycles:  158601257 heartbeat IPC: 1.40731 cumulative IPC: 0.90100 (Simulation time: 0 hr 4 min 58 sec) 
Heartbeat CPU  0 instructions:  199000002 cycles:  159315957 heartbeat IPC: 1.39919 cumulative IPC: 0.90426 (Simulation time: 0 hr 4 min 59 sec) 
Heartbeat CPU  0 instructions:  200000000 cycles:  160025181 heartbeat IPC: 1.40999 cumulative IPC: 0.90751 (Simulation time: 0 hr 5 min 1 sec) 
Finished CPU 0 instructions: 100000000 cycles: 110191601 cumulative IPC: 0.90751 (Simulation time: 0 hr 5 min 1 sec) 

ChampSim completed all CPUs

[ROI Statistics]
Core_0_instructions 100000000
Core_0_cycles 110191601
Core_0_IPC 0.90751

Core_0_branch_prediction_accuracy 99.15344
Core_0_branch_MPKI 0.35029
Core_0_average_ROB_occupancy_at_mispredict 249.76108

Core_0_L1D_total_access 49299598
Core_0_L1D_total_hit 47324722
Core_0_L1D_total_miss 1974876
Core_0_L1D_loads 23228943
Core_0_L1D_load_hit 22613964
Core_0_L1D_load_miss 614979
Core_0_L1D_RFOs 4505623
Core_0_L1D_RFO_hit 4190723
Core_0_L1D_RFO_miss 314900
Core_0_L1D_prefetches 21565032
Core_0_L1D_prefetch_hit 20520035
Core_0_L1D_prefetch_miss 1044997
Core_0_L1D_writebacks 0
Core_0_L1D_writeback_hit 0
Core_0_L1D_writeback_miss 0
Core_0_L1D_prefetch_requested 59168377
Core_0_L1D_prefetch_issued 57100983
Core_0_L1D_prefetch_useful 1556827
Core_0_L1D_prefetch_useless 1265142
Core_0_L1D_prefetch_late 216322
Core_0_L1D_average_miss_latency 12259717.24549

Core_0_L1I_total_access 22691034
Core_0_L1I_total_hit 22690814
Core_0_L1I_total_miss 220
Core_0_L1I_loads 22691034
Core_0_L1I_load_hit 22690814
Core_0_L1I_load_miss 220
Core_0_L1I_RFOs 0
Core_0_L1I_RFO_hit 0
Core_0_L1I_RFO_miss 0
Core_0_L1I_prefetches 0
Core_0_L1I_prefetch_hit 0
Core_0_L1I_prefetch_miss 0
Core_0_L1I_writebacks 0
Core_0_L1I_writeback_hit 0
Core_0_L1I_writeback_miss 0
Core_0_L1I_prefetch_requested 0
Core_0_L1I_prefetch_issued 0
Core_0_L1I_prefetch_useful 0
Core_0_L1I_prefetch_useless 0
Core_0_L1I_prefetch_late 0
Core_0_L1I_average_miss_latency 216.13182

Core_0_L2C_total_access 2533838
Core_0_L2C_total_hit 1487902
Core_0_L2C_total_miss 1045936
Core_0_L2C_loads 399987
Core_0_L2C_load_hit 331609
Core_0_L2C_load_miss 68378
Core_0_L2C_RFOs 314741
Core_0_L2C_RFO_hit 123035
Core_0_L2C_RFO_miss 191706
Core_0_L2C_prefetches 1260181
Core_0_L2C_prefetch_hit 474453
Core_0_L2C_prefetch_miss 785728
Core_0_L2C_writebacks 558929
Core_0_L2C_writeback_hit 558805
Core_0_L2C_writeback_miss 124
Core_0_L2C_prefetch_requested 0
Core_0_L2C_prefetch_issued 0
Core_0_L2C_prefetch_useful 154075
Core_0_L2C_prefetch_useless 1124384
Core_0_L2C_prefetch_late 0
Core_0_L2C_average_miss_latency 161.12304

Core_0_LLC_total_access 1913718
Core_0_LLC_total_hit 876138
Core_0_LLC_total_miss 1037580
Core_0_LLC_loads 68378
Core_0_LLC_load_hit 20035
Core_0_LLC_load_miss 48343
Core_0_LLC_RFOs 191706
Core_0_LLC_RFO_hit 16900
Core_0_LLC_RFO_miss 174806
Core_0_LLC_prefetches 1246980
Core_0_LLC_prefetch_hit 477645
Core_0_LLC_prefetch_miss 769335
Core_0_LLC_writebacks 406654
Core_0_LLC_writeback_hit 361558
Core_0_LLC_writeback_miss 45096
Core_0_LLC_prefetch_requested 1221560
Core_0_LLC_prefetch_issued 1202395
Core_0_LLC_prefetch_useful 45100
Core_0_LLC_prefetch_useless 1067239
Core_0_LLC_prefetch_late 1342
Core_0_LLC_average_miss_latency 240.15053

Core_0_major_page_fault 0
Core_0_minor_page_fault 15627

CPU 0 L1D next line prefetcher final stats
LLC Next Line Prefetcher Final Stats: none
Channel_0_RQ_row_buffer_hit 335886
Channel_0_RQ_row_buffer_miss 656588
Channel_0_WQ_row_buffer_hit 65002
Channel_0_WQ_row_buffer_miss 319013
Channel_0_WQ_full 0
Channel_0_dbus_congested 397801

avg_congested_cycle 9
