*************************************************
   ChampSim Multicore Out-of-Order Simulator
   Last compiled: Dec 23 2023 15:29:40
*************************************************

trace_0 ./test_trace/437.leslie3d-134B.champsimtrace.xz
CPU 0 L1D next line prefetcher
CPU 0 L2C IP-based stride prefetcher
Initialize SRRIP state
warmup_instructions 100000000
simulation_instructions 100000000
champsim_seed 218

num_cpus 1
cpu_freq 4000
dram_io_freq 2400
page_size 4096
block_size 64
max_read_per_cycle 8
max_fill_per_cycle 1
dram_channels 1
dram_ranks 1
dram_banks 8
dram_rows 65536
dram_columns 128
dram_row_size 8
dram_size 4096
dram_pages 1048576

fetch_width 6
decode_width 6
exec_width 4
lq_width 2
sq_width 2
retire_width 4
scheduler_size 128
branch_mispredict_penalty 20
rob_size 256
lq_size 72
sq_size 56
num_instr_destinations_sparc 4
num_instr_destinations 2
num_instr_sources 4

itlb_set 16
itlb_way 8
itlb_rq_size 16
itlb_wq_size 16
itlb_pq_size 0
itlb_mshr_size 8
itlb_latency 1

dtlb_set 16
dtlb_way 4
dtlb_rq_size 16
dtlb_wq_size 16
dtlb_pq_size 0
dtlb_mshr_size 8
dtlb_latency 1

stlb_set 128
stlb_way 12
stlb_rq_size 32
stlb_wq_size 32
stlb_pq_size 0
stlb_mshr_size 16
stlb_latency 8

l1i_size 32
l1i_set 64
l1i_way 8
l1i_rq_size 64
l1i_wq_size 64
l1i_pq_size 8
l1i_mshr_size 8
l1i_latency 1

l1d_size 32
l1d_set 64
l1d_way 8
l1d_rq_size 64
l1d_wq_size 64
l1d_pq_size 8
l1d_mshr_size 16
l1d_latency 4

l2c_size 512
l2c_set 1024
l2c_way 8
l2c_rq_size 32
l2c_wq_size 32
l2c_pq_size 16
l2c_mshr_size 32
l2c_latency 10

llc_size 2048
llc_set 2048
llc_way 16
llc_rq_size 32
llc_wq_size 32
llc_pq_size 32
llc_mshr_size 64
llc_latency 20

dram_channel_width 8
dram_wq_size 64
dram_rq_size 64
tRP 15
tRCD 15
tCAS 12.5
dram_dbus_turn_around_time 30
dram_write_high_wm 56
dram_write_low_wm 48
min_dram_writes_per_switch 16
dram_mtps 2400
dram_dbus_return_time 13


Heartbeat CPU  0 instructions:    1000002 cycles:     502353 heartbeat IPC: 1.99064 cumulative IPC: 1.99064 (Simulation time: 0 hr 0 min 1 sec) 
Heartbeat CPU  0 instructions:    2000001 cycles:     993947 heartbeat IPC: 2.03420 cumulative IPC: 2.01218 (Simulation time: 0 hr 0 min 3 sec) 
Heartbeat CPU  0 instructions:    3000001 cycles:    1490658 heartbeat IPC: 2.01324 cumulative IPC: 2.01253 (Simulation time: 0 hr 0 min 4 sec) 
Heartbeat CPU  0 instructions:    4000000 cycles:    1992253 heartbeat IPC: 1.99364 cumulative IPC: 2.00778 (Simulation time: 0 hr 0 min 5 sec) 
Heartbeat CPU  0 instructions:    5000000 cycles:    2494087 heartbeat IPC: 1.99269 cumulative IPC: 2.00474 (Simulation time: 0 hr 0 min 7 sec) 
Heartbeat CPU  0 instructions:    6000001 cycles:    2995835 heartbeat IPC: 1.99303 cumulative IPC: 2.00278 (Simulation time: 0 hr 0 min 8 sec) 
Heartbeat CPU  0 instructions:    7000000 cycles:    3482665 heartbeat IPC: 2.05410 cumulative IPC: 2.00995 (Simulation time: 0 hr 0 min 10 sec) 
Heartbeat CPU  0 instructions:    8000000 cycles:    3984399 heartbeat IPC: 1.99309 cumulative IPC: 2.00783 (Simulation time: 0 hr 0 min 11 sec) 
Heartbeat CPU  0 instructions:    9000001 cycles:    4485350 heartbeat IPC: 1.99621 cumulative IPC: 2.00653 (Simulation time: 0 hr 0 min 13 sec) 
Heartbeat CPU  0 instructions:   10000000 cycles:    4987039 heartbeat IPC: 1.99326 cumulative IPC: 2.00520 (Simulation time: 0 hr 0 min 14 sec) 
Heartbeat CPU  0 instructions:   11000001 cycles:    5480922 heartbeat IPC: 2.02477 cumulative IPC: 2.00696 (Simulation time: 0 hr 0 min 15 sec) 
Heartbeat CPU  0 instructions:   12000000 cycles:    5975655 heartbeat IPC: 2.02129 cumulative IPC: 2.00815 (Simulation time: 0 hr 0 min 17 sec) 
Heartbeat CPU  0 instructions:   13000003 cycles:    6477276 heartbeat IPC: 1.99354 cumulative IPC: 2.00702 (Simulation time: 0 hr 0 min 18 sec) 
Heartbeat CPU  0 instructions:   14000001 cycles:    6978677 heartbeat IPC: 1.99441 cumulative IPC: 2.00611 (Simulation time: 0 hr 0 min 20 sec) 
Heartbeat CPU  0 instructions:   15000003 cycles:    7480033 heartbeat IPC: 1.99459 cumulative IPC: 2.00534 (Simulation time: 0 hr 0 min 21 sec) 
Heartbeat CPU  0 instructions:   16000000 cycles:    7967194 heartbeat IPC: 2.05270 cumulative IPC: 2.00824 (Simulation time: 0 hr 0 min 22 sec) 
Heartbeat CPU  0 instructions:   17000001 cycles:    8468924 heartbeat IPC: 1.99311 cumulative IPC: 2.00734 (Simulation time: 0 hr 0 min 24 sec) 
Heartbeat CPU  0 instructions:   18000001 cycles:    8970259 heartbeat IPC: 1.99467 cumulative IPC: 2.00663 (Simulation time: 0 hr 0 min 25 sec) 
Heartbeat CPU  0 instructions:   19000003 cycles:    9471440 heartbeat IPC: 1.99529 cumulative IPC: 2.00603 (Simulation time: 0 hr 0 min 27 sec) 
Heartbeat CPU  0 instructions:   20000000 cycles:    9967992 heartbeat IPC: 2.01388 cumulative IPC: 2.00642 (Simulation time: 0 hr 0 min 28 sec) 
Heartbeat CPU  0 instructions:   21000001 cycles:   10459973 heartbeat IPC: 2.03260 cumulative IPC: 2.00765 (Simulation time: 0 hr 0 min 30 sec) 
Heartbeat CPU  0 instructions:   22000003 cycles:   10961809 heartbeat IPC: 1.99269 cumulative IPC: 2.00697 (Simulation time: 0 hr 0 min 31 sec) 
Heartbeat CPU  0 instructions:   23000001 cycles:   11463924 heartbeat IPC: 1.99157 cumulative IPC: 2.00629 (Simulation time: 0 hr 0 min 32 sec) 
Heartbeat CPU  0 instructions:   24000000 cycles:   11965446 heartbeat IPC: 1.99393 cumulative IPC: 2.00578 (Simulation time: 0 hr 0 min 34 sec) 
Heartbeat CPU  0 instructions:   25000003 cycles:   12451957 heartbeat IPC: 2.05546 cumulative IPC: 2.00772 (Simulation time: 0 hr 0 min 35 sec) 
Heartbeat CPU  0 instructions:   26000001 cycles:   12953776 heartbeat IPC: 1.99275 cumulative IPC: 2.00714 (Simulation time: 0 hr 0 min 37 sec) 
Heartbeat CPU  0 instructions:   27000003 cycles:   13455766 heartbeat IPC: 1.99208 cumulative IPC: 2.00657 (Simulation time: 0 hr 0 min 38 sec) 
Heartbeat CPU  0 instructions:   28000000 cycles:   13957612 heartbeat IPC: 1.99264 cumulative IPC: 2.00607 (Simulation time: 0 hr 0 min 39 sec) 
Heartbeat CPU  0 instructions:   29000002 cycles:   14455236 heartbeat IPC: 2.00955 cumulative IPC: 2.00619 (Simulation time: 0 hr 0 min 41 sec) 
Heartbeat CPU  0 instructions:   30000000 cycles:   14945553 heartbeat IPC: 2.03949 cumulative IPC: 2.00729 (Simulation time: 0 hr 0 min 42 sec) 
Heartbeat CPU  0 instructions:   31000002 cycles:   15447093 heartbeat IPC: 1.99386 cumulative IPC: 2.00685 (Simulation time: 0 hr 0 min 44 sec) 
Heartbeat CPU  0 instructions:   32000000 cycles:   15948530 heartbeat IPC: 1.99426 cumulative IPC: 2.00645 (Simulation time: 0 hr 0 min 45 sec) 
Heartbeat CPU  0 instructions:   33000001 cycles:   16450530 heartbeat IPC: 1.99203 cumulative IPC: 2.00601 (Simulation time: 0 hr 0 min 47 sec) 
Heartbeat CPU  0 instructions:   34000003 cycles:   16939270 heartbeat IPC: 2.04608 cumulative IPC: 2.00717 (Simulation time: 0 hr 0 min 48 sec) 
Heartbeat CPU  0 instructions:   35000000 cycles:   17438541 heartbeat IPC: 2.00291 cumulative IPC: 2.00705 (Simulation time: 0 hr 0 min 49 sec) 
Heartbeat CPU  0 instructions:   36000000 cycles:   17939799 heartbeat IPC: 1.99498 cumulative IPC: 2.00671 (Simulation time: 0 hr 0 min 51 sec) 
Heartbeat CPU  0 instructions:   37000003 cycles:   18441491 heartbeat IPC: 1.99326 cumulative IPC: 2.00635 (Simulation time: 0 hr 0 min 52 sec) 
Heartbeat CPU  0 instructions:   38000003 cycles:   18942303 heartbeat IPC: 1.99676 cumulative IPC: 2.00609 (Simulation time: 0 hr 0 min 54 sec) 
Heartbeat CPU  0 instructions:   39000003 cycles:   19429837 heartbeat IPC: 2.05114 cumulative IPC: 2.00722 (Simulation time: 0 hr 0 min 55 sec) 
Heartbeat CPU  0 instructions:   40000000 cycles:   19930927 heartbeat IPC: 1.99564 cumulative IPC: 2.00693 (Simulation time: 0 hr 0 min 56 sec) 
Heartbeat CPU  0 instructions:   41000001 cycles:   20432733 heartbeat IPC: 1.99280 cumulative IPC: 2.00658 (Simulation time: 0 hr 0 min 58 sec) 
Heartbeat CPU  0 instructions:   42000002 cycles:   20934638 heartbeat IPC: 1.99241 cumulative IPC: 2.00624 (Simulation time: 0 hr 0 min 59 sec) 
Heartbeat CPU  0 instructions:   43000003 cycles:   21426116 heartbeat IPC: 2.03468 cumulative IPC: 2.00690 (Simulation time: 0 hr 1 min 1 sec) 
Heartbeat CPU  0 instructions:   44000000 cycles:   21922995 heartbeat IPC: 2.01256 cumulative IPC: 2.00703 (Simulation time: 0 hr 1 min 2 sec) 
Heartbeat CPU  0 instructions:   45000001 cycles:   22424956 heartbeat IPC: 1.99219 cumulative IPC: 2.00669 (Simulation time: 0 hr 1 min 4 sec) 
Heartbeat CPU  0 instructions:   46000000 cycles:   22926339 heartbeat IPC: 1.99448 cumulative IPC: 2.00643 (Simulation time: 0 hr 1 min 5 sec) 
Heartbeat CPU  0 instructions:   47000002 cycles:   23428167 heartbeat IPC: 1.99272 cumulative IPC: 2.00613 (Simulation time: 0 hr 1 min 6 sec) 
Heartbeat CPU  0 instructions:   48000000 cycles:   23914783 heartbeat IPC: 2.05500 cumulative IPC: 2.00713 (Simulation time: 0 hr 1 min 8 sec) 
Heartbeat CPU  0 instructions:   49000002 cycles:   24416618 heartbeat IPC: 1.99269 cumulative IPC: 2.00683 (Simulation time: 0 hr 1 min 9 sec) 
Heartbeat CPU  0 instructions:   50000003 cycles:   24917965 heartbeat IPC: 1.99463 cumulative IPC: 2.00658 (Simulation time: 0 hr 1 min 11 sec) 
Heartbeat CPU  0 instructions:   51000003 cycles:   25419260 heartbeat IPC: 1.99483 cumulative IPC: 2.00635 (Simulation time: 0 hr 1 min 12 sec) 
Heartbeat CPU  0 instructions:   52000000 cycles:   25912722 heartbeat IPC: 2.02649 cumulative IPC: 2.00674 (Simulation time: 0 hr 1 min 13 sec) 
Heartbeat CPU  0 instructions:   53000001 cycles:   26407782 heartbeat IPC: 2.01996 cumulative IPC: 2.00698 (Simulation time: 0 hr 1 min 15 sec) 
Heartbeat CPU  0 instructions:   54000003 cycles:   26909439 heartbeat IPC: 1.99340 cumulative IPC: 2.00673 (Simulation time: 0 hr 1 min 16 sec) 
Heartbeat CPU  0 instructions:   55000003 cycles:   27410971 heartbeat IPC: 1.99389 cumulative IPC: 2.00650 (Simulation time: 0 hr 1 min 18 sec) 
Heartbeat CPU  0 instructions:   56000000 cycles:   27912177 heartbeat IPC: 1.99518 cumulative IPC: 2.00629 (Simulation time: 0 hr 1 min 19 sec) 
Heartbeat CPU  0 instructions:   57000002 cycles:   28399170 heartbeat IPC: 2.05342 cumulative IPC: 2.00710 (Simulation time: 0 hr 1 min 21 sec) 
Heartbeat CPU  0 instructions:   58000003 cycles:   28900713 heartbeat IPC: 1.99385 cumulative IPC: 2.00687 (Simulation time: 0 hr 1 min 22 sec) 
Heartbeat CPU  0 instructions:   59000001 cycles:   29402333 heartbeat IPC: 1.99354 cumulative IPC: 2.00664 (Simulation time: 0 hr 1 min 24 sec) 
Heartbeat CPU  0 instructions:   60000000 cycles:   29903442 heartbeat IPC: 1.99557 cumulative IPC: 2.00646 (Simulation time: 0 hr 1 min 25 sec) 
Heartbeat CPU  0 instructions:   61000000 cycles:   30399431 heartbeat IPC: 2.01617 cumulative IPC: 2.00662 (Simulation time: 0 hr 1 min 27 sec) 
Heartbeat CPU  0 instructions:   62000001 cycles:   30891719 heartbeat IPC: 2.03133 cumulative IPC: 2.00701 (Simulation time: 0 hr 1 min 28 sec) 
Heartbeat CPU  0 instructions:   63000001 cycles:   31393497 heartbeat IPC: 1.99291 cumulative IPC: 2.00679 (Simulation time: 0 hr 1 min 29 sec) 
Heartbeat CPU  0 instructions:   64000000 cycles:   31895545 heartbeat IPC: 1.99184 cumulative IPC: 2.00655 (Simulation time: 0 hr 1 min 31 sec) 
Heartbeat CPU  0 instructions:   65000000 cycles:   32397238 heartbeat IPC: 1.99325 cumulative IPC: 2.00634 (Simulation time: 0 hr 1 min 32 sec) 
Heartbeat CPU  0 instructions:   66000003 cycles:   32883458 heartbeat IPC: 2.05669 cumulative IPC: 2.00709 (Simulation time: 0 hr 1 min 34 sec) 
Heartbeat CPU  0 instructions:   67000000 cycles:   33385255 heartbeat IPC: 1.99283 cumulative IPC: 2.00687 (Simulation time: 0 hr 1 min 35 sec) 
Heartbeat CPU  0 instructions:   68000000 cycles:   33887052 heartbeat IPC: 1.99284 cumulative IPC: 2.00667 (Simulation time: 0 hr 1 min 37 sec) 
Heartbeat CPU  0 instructions:   69000001 cycles:   34389090 heartbeat IPC: 1.99188 cumulative IPC: 2.00645 (Simulation time: 0 hr 1 min 38 sec) 
Heartbeat CPU  0 instructions:   70000000 cycles:   34886396 heartbeat IPC: 2.01083 cumulative IPC: 2.00651 (Simulation time: 0 hr 1 min 40 sec) 
Heartbeat CPU  0 instructions:   71000001 cycles:   35376888 heartbeat IPC: 2.03877 cumulative IPC: 2.00696 (Simulation time: 0 hr 1 min 41 sec) 
Heartbeat CPU  0 instructions:   72000000 cycles:   35878776 heartbeat IPC: 1.99247 cumulative IPC: 2.00676 (Simulation time: 0 hr 1 min 43 sec) 
Heartbeat CPU  0 instructions:   73000002 cycles:   36379880 heartbeat IPC: 1.99560 cumulative IPC: 2.00660 (Simulation time: 0 hr 1 min 44 sec) 
Heartbeat CPU  0 instructions:   74000003 cycles:   36881652 heartbeat IPC: 1.99294 cumulative IPC: 2.00642 (Simulation time: 0 hr 1 min 46 sec) 
Heartbeat CPU  0 instructions:   75000001 cycles:   37370381 heartbeat IPC: 2.04612 cumulative IPC: 2.00694 (Simulation time: 0 hr 1 min 47 sec) 
Heartbeat CPU  0 instructions:   76000000 cycles:   37869759 heartbeat IPC: 2.00249 cumulative IPC: 2.00688 (Simulation time: 0 hr 1 min 49 sec) 
Heartbeat CPU  0 instructions:   77000000 cycles:   38371493 heartbeat IPC: 1.99309 cumulative IPC: 2.00670 (Simulation time: 0 hr 1 min 50 sec) 
Heartbeat CPU  0 instructions:   78000003 cycles:   38872986 heartbeat IPC: 1.99405 cumulative IPC: 2.00653 (Simulation time: 0 hr 1 min 51 sec) 
Heartbeat CPU  0 instructions:   79000001 cycles:   39373358 heartbeat IPC: 1.99851 cumulative IPC: 2.00643 (Simulation time: 0 hr 1 min 53 sec) 
Heartbeat CPU  0 instructions:   80000000 cycles:   39861885 heartbeat IPC: 2.04697 cumulative IPC: 2.00693 (Simulation time: 0 hr 1 min 54 sec) 
Heartbeat CPU  0 instructions:   81000003 cycles:   40362876 heartbeat IPC: 1.99605 cumulative IPC: 2.00679 (Simulation time: 0 hr 1 min 56 sec) 
Heartbeat CPU  0 instructions:   82000003 cycles:   40864424 heartbeat IPC: 1.99383 cumulative IPC: 2.00664 (Simulation time: 0 hr 1 min 57 sec) 
Heartbeat CPU  0 instructions:   83000001 cycles:   41366096 heartbeat IPC: 1.99333 cumulative IPC: 2.00647 (Simulation time: 0 hr 1 min 59 sec) 
Heartbeat CPU  0 instructions:   84000000 cycles:   41857332 heartbeat IPC: 2.03568 cumulative IPC: 2.00682 (Simulation time: 0 hr 2 min 0 sec) 
Heartbeat CPU  0 instructions:   85000002 cycles:   42354793 heartbeat IPC: 2.01021 cumulative IPC: 2.00686 (Simulation time: 0 hr 2 min 2 sec) 
Heartbeat CPU  0 instructions:   86000002 cycles:   42856700 heartbeat IPC: 1.99240 cumulative IPC: 2.00669 (Simulation time: 0 hr 2 min 3 sec) 
Heartbeat CPU  0 instructions:   87000002 cycles:   43358229 heartbeat IPC: 1.99390 cumulative IPC: 2.00654 (Simulation time: 0 hr 2 min 5 sec) 
Heartbeat CPU  0 instructions:   88000000 cycles:   43860103 heartbeat IPC: 1.99253 cumulative IPC: 2.00638 (Simulation time: 0 hr 2 min 6 sec) 
Heartbeat CPU  0 instructions:   89000003 cycles:   44346798 heartbeat IPC: 2.05468 cumulative IPC: 2.00691 (Simulation time: 0 hr 2 min 8 sec) 
Heartbeat CPU  0 instructions:   90000002 cycles:   44848849 heartbeat IPC: 1.99183 cumulative IPC: 2.00674 (Simulation time: 0 hr 2 min 9 sec) 
Heartbeat CPU  0 instructions:   91000000 cycles:   45350244 heartbeat IPC: 1.99443 cumulative IPC: 2.00660 (Simulation time: 0 hr 2 min 10 sec) 
Heartbeat CPU  0 instructions:   92000000 cycles:   45851881 heartbeat IPC: 1.99347 cumulative IPC: 2.00646 (Simulation time: 0 hr 2 min 12 sec) 
Heartbeat CPU  0 instructions:   93000002 cycles:   46344675 heartbeat IPC: 2.02925 cumulative IPC: 2.00670 (Simulation time: 0 hr 2 min 13 sec) 
Heartbeat CPU  0 instructions:   94000003 cycles:   46840427 heartbeat IPC: 2.01714 cumulative IPC: 2.00681 (Simulation time: 0 hr 2 min 15 sec) 
Heartbeat CPU  0 instructions:   95000003 cycles:   47341995 heartbeat IPC: 1.99375 cumulative IPC: 2.00668 (Simulation time: 0 hr 2 min 16 sec) 
Heartbeat CPU  0 instructions:   96000000 cycles:   47843636 heartbeat IPC: 1.99345 cumulative IPC: 2.00654 (Simulation time: 0 hr 2 min 18 sec) 
Heartbeat CPU  0 instructions:   97000000 cycles:   48344989 heartbeat IPC: 1.99460 cumulative IPC: 2.00641 (Simulation time: 0 hr 2 min 19 sec) 
Heartbeat CPU  0 instructions:   98000000 cycles:   48831686 heartbeat IPC: 2.05467 cumulative IPC: 2.00689 (Simulation time: 0 hr 2 min 21 sec) 
Heartbeat CPU  0 instructions:   99000002 cycles:   49333322 heartbeat IPC: 1.99348 cumulative IPC: 2.00676 (Simulation time: 0 hr 2 min 22 sec) 
Heartbeat CPU  0 instructions:  100000000 cycles:   49834899 heartbeat IPC: 1.99371 cumulative IPC: 2.00663 (Simulation time: 0 hr 2 min 23 sec) 

Warmup complete CPU  0 instructions:  100000003 cycles:   49834900 (Simulation time: 0 hr 2 min 23 sec) 

Heartbeat CPU  0 instructions:  101000001 cycles:   50664582 heartbeat IPC: 1.20528 cumulative IPC: 1.20528 (Simulation time: 0 hr 2 min 25 sec) 
Heartbeat CPU  0 instructions:  102000002 cycles:   51500048 heartbeat IPC: 1.19694 cumulative IPC: 1.20109 (Simulation time: 0 hr 2 min 27 sec) 
Heartbeat CPU  0 instructions:  103000001 cycles:   52349350 heartbeat IPC: 1.17744 cumulative IPC: 1.19310 (Simulation time: 0 hr 2 min 28 sec) 
Heartbeat CPU  0 instructions:  104000000 cycles:   53194137 heartbeat IPC: 1.18373 cumulative IPC: 1.19075 (Simulation time: 0 hr 2 min 30 sec) 
Heartbeat CPU  0 instructions:  105000003 cycles:   54017516 heartbeat IPC: 1.21451 cumulative IPC: 1.19542 (Simulation time: 0 hr 2 min 31 sec) 
Heartbeat CPU  0 instructions:  106000001 cycles:   54845698 heartbeat IPC: 1.20746 cumulative IPC: 1.19741 (Simulation time: 0 hr 2 min 33 sec) 
Heartbeat CPU  0 instructions:  107000002 cycles:   55690543 heartbeat IPC: 1.18365 cumulative IPC: 1.19543 (Simulation time: 0 hr 2 min 34 sec) 
Heartbeat CPU  0 instructions:  108000000 cycles:   56533270 heartbeat IPC: 1.18662 cumulative IPC: 1.19432 (Simulation time: 0 hr 2 min 36 sec) 
Heartbeat CPU  0 instructions:  109000003 cycles:   57377941 heartbeat IPC: 1.18390 cumulative IPC: 1.19315 (Simulation time: 0 hr 2 min 38 sec) 
Heartbeat CPU  0 instructions:  110000001 cycles:   58207949 heartbeat IPC: 1.20481 cumulative IPC: 1.19431 (Simulation time: 0 hr 2 min 39 sec) 
Heartbeat CPU  0 instructions:  111000003 cycles:   59033027 heartbeat IPC: 1.21201 cumulative IPC: 1.19590 (Simulation time: 0 hr 2 min 41 sec) 
Heartbeat CPU  0 instructions:  112000000 cycles:   59875072 heartbeat IPC: 1.18758 cumulative IPC: 1.19520 (Simulation time: 0 hr 2 min 42 sec) 
Heartbeat CPU  0 instructions:  113000002 cycles:   60715340 heartbeat IPC: 1.19010 cumulative IPC: 1.19480 (Simulation time: 0 hr 2 min 44 sec) 
Heartbeat CPU  0 instructions:  114000002 cycles:   61555648 heartbeat IPC: 1.19004 cumulative IPC: 1.19446 (Simulation time: 0 hr 2 min 45 sec) 
Heartbeat CPU  0 instructions:  115000000 cycles:   62392356 heartbeat IPC: 1.19516 cumulative IPC: 1.19451 (Simulation time: 0 hr 2 min 47 sec) 
Heartbeat CPU  0 instructions:  116000000 cycles:   63227381 heartbeat IPC: 1.19757 cumulative IPC: 1.19470 (Simulation time: 0 hr 2 min 49 sec) 
Heartbeat CPU  0 instructions:  117000002 cycles:   64060693 heartbeat IPC: 1.20003 cumulative IPC: 1.19501 (Simulation time: 0 hr 2 min 50 sec) 
Heartbeat CPU  0 instructions:  118000001 cycles:   64896960 heartbeat IPC: 1.19579 cumulative IPC: 1.19506 (Simulation time: 0 hr 2 min 52 sec) 
Heartbeat CPU  0 instructions:  119000002 cycles:   65740179 heartbeat IPC: 1.18593 cumulative IPC: 1.19457 (Simulation time: 0 hr 2 min 53 sec) 
Heartbeat CPU  0 instructions:  120000000 cycles:   66582912 heartbeat IPC: 1.18661 cumulative IPC: 1.19417 (Simulation time: 0 hr 2 min 55 sec) 
Heartbeat CPU  0 instructions:  121000001 cycles:   67416231 heartbeat IPC: 1.20002 cumulative IPC: 1.19445 (Simulation time: 0 hr 2 min 57 sec) 
Heartbeat CPU  0 instructions:  122000002 cycles:   68247483 heartbeat IPC: 1.20301 cumulative IPC: 1.19484 (Simulation time: 0 hr 2 min 58 sec) 
Heartbeat CPU  0 instructions:  123000000 cycles:   69082888 heartbeat IPC: 1.19702 cumulative IPC: 1.19493 (Simulation time: 0 hr 3 min 0 sec) 
Heartbeat CPU  0 instructions:  124000000 cycles:   69928771 heartbeat IPC: 1.18220 cumulative IPC: 1.19439 (Simulation time: 0 hr 3 min 1 sec) 
Heartbeat CPU  0 instructions:  125000000 cycles:   70779664 heartbeat IPC: 1.17524 cumulative IPC: 1.19362 (Simulation time: 0 hr 3 min 3 sec) 
Heartbeat CPU  0 instructions:  126000000 cycles:   71604028 heartbeat IPC: 1.21306 cumulative IPC: 1.19435 (Simulation time: 0 hr 3 min 4 sec) 
Heartbeat CPU  0 instructions:  127000000 cycles:   72430284 heartbeat IPC: 1.21028 cumulative IPC: 1.19493 (Simulation time: 0 hr 3 min 6 sec) 
Heartbeat CPU  0 instructions:  128000000 cycles:   73261953 heartbeat IPC: 1.20240 cumulative IPC: 1.19520 (Simulation time: 0 hr 3 min 7 sec) 
Heartbeat CPU  0 instructions:  129000002 cycles:   74105051 heartbeat IPC: 1.18610 cumulative IPC: 1.19488 (Simulation time: 0 hr 3 min 9 sec) 
Heartbeat CPU  0 instructions:  130000002 cycles:   74960775 heartbeat IPC: 1.16860 cumulative IPC: 1.19399 (Simulation time: 0 hr 3 min 11 sec) 
Heartbeat CPU  0 instructions:  131000002 cycles:   75787004 heartbeat IPC: 1.21032 cumulative IPC: 1.19451 (Simulation time: 0 hr 3 min 12 sec) 
Heartbeat CPU  0 instructions:  132000000 cycles:   76611256 heartbeat IPC: 1.21322 cumulative IPC: 1.19508 (Simulation time: 0 hr 3 min 14 sec) 
Heartbeat CPU  0 instructions:  133000000 cycles:   77440979 heartbeat IPC: 1.20522 cumulative IPC: 1.19539 (Simulation time: 0 hr 3 min 15 sec) 
Heartbeat CPU  0 instructions:  134000000 cycles:   78286469 heartbeat IPC: 1.18275 cumulative IPC: 1.19501 (Simulation time: 0 hr 3 min 17 sec) 
Heartbeat CPU  0 instructions:  135000002 cycles:   79137646 heartbeat IPC: 1.17485 cumulative IPC: 1.19443 (Simulation time: 0 hr 3 min 18 sec) 
Heartbeat CPU  0 instructions:  136000000 cycles:   79963769 heartbeat IPC: 1.21047 cumulative IPC: 1.19487 (Simulation time: 0 hr 3 min 20 sec) 
Heartbeat CPU  0 instructions:  137000001 cycles:   80788856 heartbeat IPC: 1.21199 cumulative IPC: 1.19532 (Simulation time: 0 hr 3 min 22 sec) 
Heartbeat CPU  0 instructions:  138000003 cycles:   81621663 heartbeat IPC: 1.20076 cumulative IPC: 1.19547 (Simulation time: 0 hr 3 min 23 sec) 
Heartbeat CPU  0 instructions:  139000003 cycles:   82467545 heartbeat IPC: 1.18220 cumulative IPC: 1.19512 (Simulation time: 0 hr 3 min 25 sec) 
Heartbeat CPU  0 instructions:  140000000 cycles:   83317528 heartbeat IPC: 1.17649 cumulative IPC: 1.19465 (Simulation time: 0 hr 3 min 26 sec) 
Heartbeat CPU  0 instructions:  141000003 cycles:   84148818 heartbeat IPC: 1.20295 cumulative IPC: 1.19485 (Simulation time: 0 hr 3 min 28 sec) 
Heartbeat CPU  0 instructions:  142000000 cycles:   84972202 heartbeat IPC: 1.21450 cumulative IPC: 1.19531 (Simulation time: 0 hr 3 min 29 sec) 
Heartbeat CPU  0 instructions:  143000000 cycles:   85802515 heartbeat IPC: 1.20437 cumulative IPC: 1.19552 (Simulation time: 0 hr 3 min 31 sec) 
Heartbeat CPU  0 instructions:  144000000 cycles:   86642850 heartbeat IPC: 1.19000 cumulative IPC: 1.19539 (Simulation time: 0 hr 3 min 33 sec) 
Heartbeat CPU  0 instructions:  145000002 cycles:   87490126 heartbeat IPC: 1.18026 cumulative IPC: 1.19505 (Simulation time: 0 hr 3 min 34 sec) 
Heartbeat CPU  0 instructions:  146000002 cycles:   88328099 heartbeat IPC: 1.19336 cumulative IPC: 1.19502 (Simulation time: 0 hr 3 min 36 sec) 
Heartbeat CPU  0 instructions:  147000002 cycles:   89217783 heartbeat IPC: 1.12399 cumulative IPC: 1.19341 (Simulation time: 0 hr 3 min 37 sec) 
Heartbeat CPU  0 instructions:  148000000 cycles:   90397632 heartbeat IPC: 0.84756 cumulative IPC: 1.18335 (Simulation time: 0 hr 3 min 39 sec) 
Heartbeat CPU  0 instructions:  149000002 cycles:   91579515 heartbeat IPC: 0.84611 cumulative IPC: 1.17380 (Simulation time: 0 hr 3 min 41 sec) 
Heartbeat CPU  0 instructions:  150000002 cycles:   92747764 heartbeat IPC: 0.85598 cumulative IPC: 1.16515 (Simulation time: 0 hr 3 min 43 sec) 
Heartbeat CPU  0 instructions:  151000001 cycles:   93917839 heartbeat IPC: 0.85465 cumulative IPC: 1.15691 (Simulation time: 0 hr 3 min 45 sec) 
Heartbeat CPU  0 instructions:  152000000 cycles:   95088355 heartbeat IPC: 0.85432 cumulative IPC: 1.14908 (Simulation time: 0 hr 3 min 46 sec) 
Heartbeat CPU  0 instructions:  153000003 cycles:   96267942 heartbeat IPC: 0.84776 cumulative IPC: 1.14143 (Simulation time: 0 hr 3 min 48 sec) 
Heartbeat CPU  0 instructions:  154000002 cycles:   97451592 heartbeat IPC: 0.84484 cumulative IPC: 1.13406 (Simulation time: 0 hr 3 min 50 sec) 
Heartbeat CPU  0 instructions:  155000003 cycles:   98639189 heartbeat IPC: 0.84204 cumulative IPC: 1.12695 (Simulation time: 0 hr 3 min 52 sec) 
Heartbeat CPU  0 instructions:  156000000 cycles:   99813034 heartbeat IPC: 0.85190 cumulative IPC: 1.12049 (Simulation time: 0 hr 3 min 54 sec) 
Heartbeat CPU  0 instructions:  157000003 cycles:  100995185 heartbeat IPC: 0.84592 cumulative IPC: 1.11415 (Simulation time: 0 hr 3 min 55 sec) 
Heartbeat CPU  0 instructions:  158000000 cycles:  102180221 heartbeat IPC: 0.84385 cumulative IPC: 1.10803 (Simulation time: 0 hr 3 min 57 sec) 
Heartbeat CPU  0 instructions:  159000003 cycles:  103374470 heartbeat IPC: 0.83735 cumulative IPC: 1.10199 (Simulation time: 0 hr 3 min 59 sec) 
Heartbeat CPU  0 instructions:  160000000 cycles:  104563889 heartbeat IPC: 0.84074 cumulative IPC: 1.09631 (Simulation time: 0 hr 4 min 1 sec) 
Heartbeat CPU  0 instructions:  161000000 cycles:  105740090 heartbeat IPC: 0.85019 cumulative IPC: 1.09113 (Simulation time: 0 hr 4 min 3 sec) 
Heartbeat CPU  0 instructions:  162000000 cycles:  106931059 heartbeat IPC: 0.83965 cumulative IPC: 1.08589 (Simulation time: 0 hr 4 min 4 sec) 
Heartbeat CPU  0 instructions:  163000002 cycles:  108124206 heartbeat IPC: 0.83812 cumulative IPC: 1.08082 (Simulation time: 0 hr 4 min 6 sec) 
Heartbeat CPU  0 instructions:  164000000 cycles:  109307397 heartbeat IPC: 0.84517 cumulative IPC: 1.07613 (Simulation time: 0 hr 4 min 8 sec) 
Heartbeat CPU  0 instructions:  165000003 cycles:  110495924 heartbeat IPC: 0.84138 cumulative IPC: 1.07153 (Simulation time: 0 hr 4 min 10 sec) 
Heartbeat CPU  0 instructions:  166000001 cycles:  111675345 heartbeat IPC: 0.84787 cumulative IPC: 1.06726 (Simulation time: 0 hr 4 min 11 sec) 
Heartbeat CPU  0 instructions:  167000001 cycles:  112859709 heartbeat IPC: 0.84434 cumulative IPC: 1.06307 (Simulation time: 0 hr 4 min 13 sec) 
Heartbeat CPU  0 instructions:  168000000 cycles:  114046240 heartbeat IPC: 0.84279 cumulative IPC: 1.05900 (Simulation time: 0 hr 4 min 15 sec) 
Heartbeat CPU  0 instructions:  169000002 cycles:  115231895 heartbeat IPC: 0.84342 cumulative IPC: 1.05509 (Simulation time: 0 hr 4 min 17 sec) 
Heartbeat CPU  0 instructions:  170000002 cycles:  116408183 heartbeat IPC: 0.85013 cumulative IPC: 1.05147 (Simulation time: 0 hr 4 min 19 sec) 
Heartbeat CPU  0 instructions:  171000002 cycles:  117589087 heartbeat IPC: 0.84681 cumulative IPC: 1.04791 (Simulation time: 0 hr 4 min 20 sec) 
Heartbeat CPU  0 instructions:  172000000 cycles:  118773471 heartbeat IPC: 0.84432 cumulative IPC: 1.04441 (Simulation time: 0 hr 4 min 22 sec) 
Heartbeat CPU  0 instructions:  173000002 cycles:  119952348 heartbeat IPC: 0.84827 cumulative IPC: 1.04111 (Simulation time: 0 hr 4 min 24 sec) 
Heartbeat CPU  0 instructions:  174000003 cycles:  121139577 heartbeat IPC: 0.84230 cumulative IPC: 1.03780 (Simulation time: 0 hr 4 min 26 sec) 
Heartbeat CPU  0 instructions:  175000002 cycles:  122335653 heartbeat IPC: 0.83607 cumulative IPC: 1.03447 (Simulation time: 0 hr 4 min 28 sec) 
Heartbeat CPU  0 instructions:  176000000 cycles:  123515555 heartbeat IPC: 0.84753 cumulative IPC: 1.03148 (Simulation time: 0 hr 4 min 29 sec) 
Heartbeat CPU  0 instructions:  177000003 cycles:  124702182 heartbeat IPC: 0.84273 cumulative IPC: 1.02849 (Simulation time: 0 hr 4 min 31 sec) 
Heartbeat CPU  0 instructions:  178000000 cycles:  125892142 heartbeat IPC: 0.84036 cumulative IPC: 1.02554 (Simulation time: 0 hr 4 min 33 sec) 
Heartbeat CPU  0 instructions:  179000002 cycles:  127075924 heartbeat IPC: 0.84475 cumulative IPC: 1.02277 (Simulation time: 0 hr 4 min 35 sec) 
Heartbeat CPU  0 instructions:  180000000 cycles:  128261782 heartbeat IPC: 0.84327 cumulative IPC: 1.02006 (Simulation time: 0 hr 4 min 37 sec) 
Heartbeat CPU  0 instructions:  181000003 cycles:  129448848 heartbeat IPC: 0.84242 cumulative IPC: 1.01741 (Simulation time: 0 hr 4 min 38 sec) 
Heartbeat CPU  0 instructions:  182000002 cycles:  130631263 heartbeat IPC: 0.84573 cumulative IPC: 1.01490 (Simulation time: 0 hr 4 min 40 sec) 
Heartbeat CPU  0 instructions:  183000000 cycles:  131818132 heartbeat IPC: 0.84255 cumulative IPC: 1.01240 (Simulation time: 0 hr 4 min 42 sec) 
Heartbeat CPU  0 instructions:  184000000 cycles:  133001809 heartbeat IPC: 0.84483 cumulative IPC: 1.01002 (Simulation time: 0 hr 4 min 44 sec) 
Heartbeat CPU  0 instructions:  185000003 cycles:  134187553 heartbeat IPC: 0.84335 cumulative IPC: 1.00767 (Simulation time: 0 hr 4 min 46 sec) 
Heartbeat CPU  0 instructions:  186000001 cycles:  135366448 heartbeat IPC: 0.84825 cumulative IPC: 1.00548 (Simulation time: 0 hr 4 min 48 sec) 
Heartbeat CPU  0 instructions:  187000002 cycles:  136558028 heartbeat IPC: 0.83922 cumulative IPC: 1.00319 (Simulation time: 0 hr 4 min 49 sec) 
Heartbeat CPU  0 instructions:  188000000 cycles:  137742147 heartbeat IPC: 0.84451 cumulative IPC: 1.00106 (Simulation time: 0 hr 4 min 51 sec) 
Heartbeat CPU  0 instructions:  189000001 cycles:  138934035 heartbeat IPC: 0.83901 cumulative IPC: 0.99889 (Simulation time: 0 hr 4 min 53 sec) 
Heartbeat CPU  0 instructions:  190000003 cycles:  140127859 heartbeat IPC: 0.83765 cumulative IPC: 0.99676 (Simulation time: 0 hr 4 min 55 sec) 
Heartbeat CPU  0 instructions:  191000002 cycles:  141312856 heartbeat IPC: 0.84388 cumulative IPC: 0.99478 (Simulation time: 0 hr 4 min 57 sec) 
Heartbeat CPU  0 instructions:  192000000 cycles:  142470514 heartbeat IPC: 0.86381 cumulative IPC: 0.99314 (Simulation time: 0 hr 4 min 58 sec) 
Heartbeat CPU  0 instructions:  193000003 cycles:  143369153 heartbeat IPC: 1.11280 cumulative IPC: 0.99429 (Simulation time: 0 hr 5 min 0 sec) 
Heartbeat CPU  0 instructions:  194000001 cycles:  147224289 heartbeat IPC: 0.25939 cumulative IPC: 0.96520 (Simulation time: 0 hr 5 min 3 sec) 
Heartbeat CPU  0 instructions:  195000000 cycles:  150183637 heartbeat IPC: 0.33791 cumulative IPC: 0.94670 (Simulation time: 0 hr 5 min 6 sec) 
Heartbeat CPU  0 instructions:  196000000 cycles:  150893271 heartbeat IPC: 1.40918 cumulative IPC: 0.94995 (Simulation time: 0 hr 5 min 8 sec) 
Heartbeat CPU  0 instructions:  197000000 cycles:  151602983 heartbeat IPC: 1.40902 cumulative IPC: 0.95315 (Simulation time: 0 hr 5 min 10 sec) 
Heartbeat CPU  0 instructions:  198000003 cycles:  152311870 heartbeat IPC: 1.41067 cumulative IPC: 0.95631 (Simulation time: 0 hr 5 min 11 sec) 
Heartbeat CPU  0 instructions:  199000002 cycles:  153025085 heartbeat IPC: 1.40210 cumulative IPC: 0.95939 (Simulation time: 0 hr 5 min 13 sec) 
Heartbeat CPU  0 instructions:  200000000 cycles:  153734775 heartbeat IPC: 1.40906 cumulative IPC: 0.96247 (Simulation time: 0 hr 5 min 15 sec) 
Finished CPU 0 instructions: 100000000 cycles: 103899904 cumulative IPC: 0.96246 (Simulation time: 0 hr 5 min 15 sec) 

ChampSim completed all CPUs

[ROI Statistics]
Core_0_instructions 100000000
Core_0_cycles 103899904
Core_0_IPC 0.96246

Core_0_branch_prediction_accuracy 99.15344
Core_0_branch_MPKI 0.35029
Core_0_average_ROB_occupancy_at_mispredict 249.72745

Core_0_L1D_total_access 49778004
Core_0_L1D_total_hit 47801930
Core_0_L1D_total_miss 1976074
Core_0_L1D_loads 23352348
Core_0_L1D_load_hit 22817407
Core_0_L1D_load_miss 534941
Core_0_L1D_RFOs 4497872
Core_0_L1D_RFO_hit 4182957
Core_0_L1D_RFO_miss 314915
Core_0_L1D_prefetches 21927784
Core_0_L1D_prefetch_hit 20801566
Core_0_L1D_prefetch_miss 1126218
Core_0_L1D_writebacks 0
Core_0_L1D_writeback_hit 0
Core_0_L1D_writeback_miss 0
Core_0_L1D_prefetch_requested 59218001
Core_0_L1D_prefetch_issued 57143731
Core_0_L1D_prefetch_useful 1640645
Core_0_L1D_prefetch_useless 1229441
Core_0_L1D_prefetch_late 138924
Core_0_L1D_average_miss_latency 7787552.71936

Core_0_L1I_total_access 22644068
Core_0_L1I_total_hit 22643848
Core_0_L1I_total_miss 220
Core_0_L1I_loads 22644068
Core_0_L1I_load_hit 22643848
Core_0_L1I_load_miss 220
Core_0_L1I_RFOs 0
Core_0_L1I_RFO_hit 0
Core_0_L1I_RFO_miss 0
Core_0_L1I_prefetches 0
Core_0_L1I_prefetch_hit 0
Core_0_L1I_prefetch_miss 0
Core_0_L1I_writebacks 0
Core_0_L1I_writeback_hit 0
Core_0_L1I_writeback_miss 0
Core_0_L1I_prefetch_requested 0
Core_0_L1I_prefetch_issued 0
Core_0_L1I_prefetch_useful 0
Core_0_L1I_prefetch_useless 0
Core_0_L1I_prefetch_late 0
Core_0_L1I_average_miss_latency 256.32273

Core_0_L2C_total_access 4329205
Core_0_L2C_total_hit 3232141
Core_0_L2C_total_miss 1097064
Core_0_L2C_loads 397905
Core_0_L2C_load_hit 333258
Core_0_L2C_load_miss 64647
Core_0_L2C_RFOs 314752
Core_0_L2C_RFO_hit 123380
Core_0_L2C_RFO_miss 191372
Core_0_L2C_prefetches 3057610
Core_0_L2C_prefetch_hit 2216697
Core_0_L2C_prefetch_miss 840913
Core_0_L2C_writebacks 558938
Core_0_L2C_writeback_hit 558806
Core_0_L2C_writeback_miss 132
Core_0_L2C_prefetch_requested 4631210
Core_0_L2C_prefetch_issued 4628467
Core_0_L2C_prefetch_useful 163041
Core_0_L2C_prefetch_useless 1257338
Core_0_L2C_prefetch_late 1320
Core_0_L2C_average_miss_latency 243.91191

Core_0_LLC_total_access 1516019
Core_0_LLC_total_hit 536153
Core_0_LLC_total_miss 979866
Core_0_LLC_loads 63706
Core_0_LLC_load_hit 19656
Core_0_LLC_load_miss 44050
Core_0_LLC_RFOs 190993
Core_0_LLC_RFO_hit 13509
Core_0_LLC_RFO_miss 177484
Core_0_LLC_prefetches 851697
Core_0_LLC_prefetch_hit 108408
Core_0_LLC_prefetch_miss 743289
Core_0_LLC_writebacks 409623
Core_0_LLC_writeback_hit 394580
Core_0_LLC_writeback_miss 15043
Core_0_LLC_prefetch_requested 0
Core_0_LLC_prefetch_issued 0
Core_0_LLC_prefetch_useful 39007
Core_0_LLC_prefetch_useless 1055185
Core_0_LLC_prefetch_late 52
Core_0_LLC_average_miss_latency 242.01571

Core_0_major_page_fault 0
Core_0_minor_page_fault 15627

CPU 0 L1D next line prefetcher final stats
CPU 0 L2C PC-based stride prefetcher final stats
Channel_0_RQ_row_buffer_hit 303299
Channel_0_RQ_row_buffer_miss 661498
Channel_0_WQ_row_buffer_hit 67907
Channel_0_WQ_row_buffer_miss 307960
Channel_0_WQ_full 0
Channel_0_dbus_congested 504357

avg_congested_cycle 9
