*************************************************
   ChampSim Multicore Out-of-Order Simulator
   Last compiled: Dec 23 2023 14:31:23
*************************************************

trace_0 ./test_trace/437.leslie3d-134B.champsimtrace.xz
CPU 0 L2C next line prefetcher
Initialize DRRIP state
Assign rand_sets[0]: 454  LLC: 2048
rand_sets[0]: 454
Assign rand_sets[1]: 1662  LLC: 2048
rand_sets[1]: 1662
Assign rand_sets[2]: 1921  LLC: 2048
rand_sets[2]: 1921
Assign rand_sets[3]: 1131  LLC: 2048
rand_sets[3]: 1131
Assign rand_sets[4]: 331  LLC: 2048
rand_sets[4]: 331
Assign rand_sets[5]: 1531  LLC: 2048
rand_sets[5]: 1531
Assign rand_sets[6]: 482  LLC: 2048
rand_sets[6]: 482
Assign rand_sets[7]: 1275  LLC: 2048
rand_sets[7]: 1275
Assign rand_sets[8]: 1876  LLC: 2048
rand_sets[8]: 1876
Assign rand_sets[9]: 2038  LLC: 2048
rand_sets[9]: 2038
Assign rand_sets[10]: 701  LLC: 2048
rand_sets[10]: 701
Assign rand_sets[11]: 479  LLC: 2048
rand_sets[11]: 479
Assign rand_sets[12]: 892  LLC: 2048
rand_sets[12]: 892
Assign rand_sets[13]: 1820  LLC: 2048
rand_sets[13]: 1820
Assign rand_sets[14]: 1505  LLC: 2048
rand_sets[14]: 1505
Assign rand_sets[15]: 1159  LLC: 2048
rand_sets[15]: 1159
Assign rand_sets[16]: 513  LLC: 2048
rand_sets[16]: 513
Assign rand_sets[17]: 703  LLC: 2048
rand_sets[17]: 703
Assign rand_sets[18]: 561  LLC: 2048
rand_sets[18]: 561
Assign rand_sets[19]: 990  LLC: 2048
rand_sets[19]: 990
Assign rand_sets[20]: 342  LLC: 2048
rand_sets[20]: 342
Assign rand_sets[21]: 882  LLC: 2048
rand_sets[21]: 882
Assign rand_sets[22]: 15  LLC: 2048
rand_sets[22]: 15
Assign rand_sets[23]: 71  LLC: 2048
rand_sets[23]: 71
Assign rand_sets[24]: 1127  LLC: 2048
rand_sets[24]: 1127
Assign rand_sets[25]: 1382  LLC: 2048
rand_sets[25]: 1382
Assign rand_sets[26]: 647  LLC: 2048
rand_sets[26]: 647
Assign rand_sets[27]: 857  LLC: 2048
rand_sets[27]: 857
Assign rand_sets[28]: 1450  LLC: 2048
rand_sets[28]: 1450
Assign rand_sets[29]: 1160  LLC: 2048
rand_sets[29]: 1160
Assign rand_sets[30]: 1852  LLC: 2048
rand_sets[30]: 1852
Assign rand_sets[31]: 1881  LLC: 2048
rand_sets[31]: 1881
Assign rand_sets[32]: 1770  LLC: 2048
rand_sets[32]: 1770
Assign rand_sets[33]: 1622  LLC: 2048
rand_sets[33]: 1622
Assign rand_sets[34]: 275  LLC: 2048
rand_sets[34]: 275
Assign rand_sets[35]: 635  LLC: 2048
rand_sets[35]: 635
Assign rand_sets[36]: 466  LLC: 2048
rand_sets[36]: 466
Assign rand_sets[37]: 1413  LLC: 2048
rand_sets[37]: 1413
Assign rand_sets[38]: 417  LLC: 2048
rand_sets[38]: 417
Assign rand_sets[39]: 472  LLC: 2048
rand_sets[39]: 472
Assign rand_sets[40]: 1340  LLC: 2048
rand_sets[40]: 1340
Assign rand_sets[41]: 852  LLC: 2048
rand_sets[41]: 852
Assign rand_sets[42]: 1365  LLC: 2048
rand_sets[42]: 1365
Assign rand_sets[43]: 47  LLC: 2048
rand_sets[43]: 47
Assign rand_sets[44]: 823  LLC: 2048
rand_sets[44]: 823
Assign rand_sets[45]: 686  LLC: 2048
rand_sets[45]: 686
Assign rand_sets[46]: 1637  LLC: 2048
rand_sets[46]: 1637
Assign rand_sets[47]: 1115  LLC: 2048
rand_sets[47]: 1115
Assign rand_sets[48]: 986  LLC: 2048
rand_sets[48]: 986
Assign rand_sets[49]: 258  LLC: 2048
rand_sets[49]: 258
Assign rand_sets[50]: 633  LLC: 2048
rand_sets[50]: 633
Assign rand_sets[51]: 920  LLC: 2048
rand_sets[51]: 920
Assign rand_sets[52]: 204  LLC: 2048
rand_sets[52]: 204
Assign rand_sets[53]: 227  LLC: 2048
rand_sets[53]: 227
Assign rand_sets[54]: 1818  LLC: 2048
rand_sets[54]: 1818
Assign rand_sets[55]: 886  LLC: 2048
rand_sets[55]: 886
Assign rand_sets[56]: 1422  LLC: 2048
rand_sets[56]: 1422
Assign rand_sets[57]: 607  LLC: 2048
rand_sets[57]: 607
Assign rand_sets[58]: 217  LLC: 2048
rand_sets[58]: 217
Assign rand_sets[59]: 1945  LLC: 2048
rand_sets[59]: 1945
Assign rand_sets[60]: 143  LLC: 2048
rand_sets[60]: 143
Assign rand_sets[61]: 1311  LLC: 2048
rand_sets[61]: 1311
Assign rand_sets[62]: 319  LLC: 2048
rand_sets[62]: 319
Assign rand_sets[63]: 1846  LLC: 2048
rand_sets[63]: 1846
LLC Next Line Prefetcher
warmup_instructions 100000000
simulation_instructions 100000000
champsim_seed 218

num_cpus 1
cpu_freq 4000
dram_io_freq 2400
page_size 4096
block_size 64
max_read_per_cycle 8
max_fill_per_cycle 1
dram_channels 1
dram_ranks 1
dram_banks 8
dram_rows 65536
dram_columns 128
dram_row_size 8
dram_size 4096
dram_pages 1048576

fetch_width 6
decode_width 6
exec_width 4
lq_width 2
sq_width 2
retire_width 4
scheduler_size 128
branch_mispredict_penalty 20
rob_size 256
lq_size 72
sq_size 56
num_instr_destinations_sparc 4
num_instr_destinations 2
num_instr_sources 4

itlb_set 16
itlb_way 8
itlb_rq_size 16
itlb_wq_size 16
itlb_pq_size 0
itlb_mshr_size 8
itlb_latency 1

dtlb_set 16
dtlb_way 4
dtlb_rq_size 16
dtlb_wq_size 16
dtlb_pq_size 0
dtlb_mshr_size 8
dtlb_latency 1

stlb_set 128
stlb_way 12
stlb_rq_size 32
stlb_wq_size 32
stlb_pq_size 0
stlb_mshr_size 16
stlb_latency 8

l1i_size 32
l1i_set 64
l1i_way 8
l1i_rq_size 64
l1i_wq_size 64
l1i_pq_size 8
l1i_mshr_size 8
l1i_latency 1

l1d_size 32
l1d_set 64
l1d_way 8
l1d_rq_size 64
l1d_wq_size 64
l1d_pq_size 8
l1d_mshr_size 16
l1d_latency 4

l2c_size 512
l2c_set 1024
l2c_way 8
l2c_rq_size 32
l2c_wq_size 32
l2c_pq_size 16
l2c_mshr_size 32
l2c_latency 10

llc_size 2048
llc_set 2048
llc_way 16
llc_rq_size 32
llc_wq_size 32
llc_pq_size 32
llc_mshr_size 64
llc_latency 20

dram_channel_width 8
dram_wq_size 64
dram_rq_size 64
tRP 15
tRCD 15
tCAS 12.5
dram_dbus_turn_around_time 30
dram_write_high_wm 56
dram_write_low_wm 48
min_dram_writes_per_switch 16
dram_mtps 2400
dram_dbus_return_time 13


Heartbeat CPU  0 instructions:    1000002 cycles:     502313 heartbeat IPC: 1.99079 cumulative IPC: 1.99079 (Simulation time: 0 hr 0 min 2 sec) 
Heartbeat CPU  0 instructions:    2000001 cycles:     993826 heartbeat IPC: 2.03453 cumulative IPC: 2.01243 (Simulation time: 0 hr 0 min 3 sec) 
Heartbeat CPU  0 instructions:    3000001 cycles:    1490531 heartbeat IPC: 2.01327 cumulative IPC: 2.01271 (Simulation time: 0 hr 0 min 4 sec) 
Heartbeat CPU  0 instructions:    4000000 cycles:    1992308 heartbeat IPC: 1.99292 cumulative IPC: 2.00772 (Simulation time: 0 hr 0 min 6 sec) 
Heartbeat CPU  0 instructions:    5000000 cycles:    2494334 heartbeat IPC: 1.99193 cumulative IPC: 2.00454 (Simulation time: 0 hr 0 min 7 sec) 
Heartbeat CPU  0 instructions:    6000001 cycles:    2996199 heartbeat IPC: 1.99257 cumulative IPC: 2.00254 (Simulation time: 0 hr 0 min 8 sec) 
Heartbeat CPU  0 instructions:    7000000 cycles:    3482954 heartbeat IPC: 2.05442 cumulative IPC: 2.00979 (Simulation time: 0 hr 0 min 10 sec) 
Heartbeat CPU  0 instructions:    8000000 cycles:    3984659 heartbeat IPC: 1.99320 cumulative IPC: 2.00770 (Simulation time: 0 hr 0 min 11 sec) 
Heartbeat CPU  0 instructions:    9000001 cycles:    4485810 heartbeat IPC: 1.99541 cumulative IPC: 2.00633 (Simulation time: 0 hr 0 min 12 sec) 
Heartbeat CPU  0 instructions:   10000000 cycles:    4987793 heartbeat IPC: 1.99210 cumulative IPC: 2.00489 (Simulation time: 0 hr 0 min 13 sec) 
Heartbeat CPU  0 instructions:   11000001 cycles:    5481710 heartbeat IPC: 2.02463 cumulative IPC: 2.00667 (Simulation time: 0 hr 0 min 15 sec) 
Heartbeat CPU  0 instructions:   12000000 cycles:    5976520 heartbeat IPC: 2.02098 cumulative IPC: 2.00786 (Simulation time: 0 hr 0 min 16 sec) 
Heartbeat CPU  0 instructions:   13000003 cycles:    6478097 heartbeat IPC: 1.99372 cumulative IPC: 2.00676 (Simulation time: 0 hr 0 min 17 sec) 
Heartbeat CPU  0 instructions:   14000001 cycles:    6979655 heartbeat IPC: 1.99378 cumulative IPC: 2.00583 (Simulation time: 0 hr 0 min 19 sec) 
Heartbeat CPU  0 instructions:   15000003 cycles:    7481358 heartbeat IPC: 1.99322 cumulative IPC: 2.00498 (Simulation time: 0 hr 0 min 20 sec) 
Heartbeat CPU  0 instructions:   16000000 cycles:    7968472 heartbeat IPC: 2.05290 cumulative IPC: 2.00791 (Simulation time: 0 hr 0 min 21 sec) 
Heartbeat CPU  0 instructions:   17000001 cycles:    8470203 heartbeat IPC: 1.99310 cumulative IPC: 2.00704 (Simulation time: 0 hr 0 min 22 sec) 
Heartbeat CPU  0 instructions:   18000001 cycles:    8971563 heartbeat IPC: 1.99457 cumulative IPC: 2.00634 (Simulation time: 0 hr 0 min 24 sec) 
Heartbeat CPU  0 instructions:   19000003 cycles:    9472679 heartbeat IPC: 1.99555 cumulative IPC: 2.00577 (Simulation time: 0 hr 0 min 25 sec) 
Heartbeat CPU  0 instructions:   20000000 cycles:    9969472 heartbeat IPC: 2.01290 cumulative IPC: 2.00612 (Simulation time: 0 hr 0 min 26 sec) 
Heartbeat CPU  0 instructions:   21000001 cycles:   10461481 heartbeat IPC: 2.03249 cumulative IPC: 2.00736 (Simulation time: 0 hr 0 min 28 sec) 
Heartbeat CPU  0 instructions:   22000003 cycles:   10963441 heartbeat IPC: 1.99219 cumulative IPC: 2.00667 (Simulation time: 0 hr 0 min 29 sec) 
Heartbeat CPU  0 instructions:   23000001 cycles:   11465605 heartbeat IPC: 1.99138 cumulative IPC: 2.00600 (Simulation time: 0 hr 0 min 30 sec) 
Heartbeat CPU  0 instructions:   24000000 cycles:   11967057 heartbeat IPC: 1.99421 cumulative IPC: 2.00551 (Simulation time: 0 hr 0 min 32 sec) 
Heartbeat CPU  0 instructions:   25000003 cycles:   12453686 heartbeat IPC: 2.05496 cumulative IPC: 2.00744 (Simulation time: 0 hr 0 min 33 sec) 
Heartbeat CPU  0 instructions:   26000001 cycles:   12955621 heartbeat IPC: 1.99229 cumulative IPC: 2.00685 (Simulation time: 0 hr 0 min 34 sec) 
Heartbeat CPU  0 instructions:   27000003 cycles:   13457783 heartbeat IPC: 1.99139 cumulative IPC: 2.00627 (Simulation time: 0 hr 0 min 35 sec) 
Heartbeat CPU  0 instructions:   28000000 cycles:   13959689 heartbeat IPC: 1.99240 cumulative IPC: 2.00578 (Simulation time: 0 hr 0 min 37 sec) 
Heartbeat CPU  0 instructions:   29000002 cycles:   14457157 heartbeat IPC: 2.01018 cumulative IPC: 2.00593 (Simulation time: 0 hr 0 min 38 sec) 
Heartbeat CPU  0 instructions:   30000000 cycles:   14947676 heartbeat IPC: 2.03865 cumulative IPC: 2.00700 (Simulation time: 0 hr 0 min 39 sec) 
Heartbeat CPU  0 instructions:   31000002 cycles:   15449503 heartbeat IPC: 1.99272 cumulative IPC: 2.00654 (Simulation time: 0 hr 0 min 41 sec) 
Heartbeat CPU  0 instructions:   32000000 cycles:   15950983 heartbeat IPC: 1.99409 cumulative IPC: 2.00615 (Simulation time: 0 hr 0 min 42 sec) 
Heartbeat CPU  0 instructions:   33000001 cycles:   16452966 heartbeat IPC: 1.99210 cumulative IPC: 2.00572 (Simulation time: 0 hr 0 min 43 sec) 
Heartbeat CPU  0 instructions:   34000003 cycles:   16941367 heartbeat IPC: 2.04750 cumulative IPC: 2.00692 (Simulation time: 0 hr 0 min 45 sec) 
Heartbeat CPU  0 instructions:   35000000 cycles:   17440873 heartbeat IPC: 2.00197 cumulative IPC: 2.00678 (Simulation time: 0 hr 0 min 46 sec) 
Heartbeat CPU  0 instructions:   36000000 cycles:   17942366 heartbeat IPC: 1.99405 cumulative IPC: 2.00642 (Simulation time: 0 hr 0 min 47 sec) 
Heartbeat CPU  0 instructions:   37000003 cycles:   18444189 heartbeat IPC: 1.99274 cumulative IPC: 2.00605 (Simulation time: 0 hr 0 min 48 sec) 
Heartbeat CPU  0 instructions:   38000003 cycles:   18944951 heartbeat IPC: 1.99696 cumulative IPC: 2.00581 (Simulation time: 0 hr 0 min 50 sec) 
Heartbeat CPU  0 instructions:   39000003 cycles:   19432197 heartbeat IPC: 2.05235 cumulative IPC: 2.00698 (Simulation time: 0 hr 0 min 51 sec) 
Heartbeat CPU  0 instructions:   40000000 cycles:   19933430 heartbeat IPC: 1.99507 cumulative IPC: 2.00668 (Simulation time: 0 hr 0 min 52 sec) 
Heartbeat CPU  0 instructions:   41000001 cycles:   20435443 heartbeat IPC: 1.99198 cumulative IPC: 2.00632 (Simulation time: 0 hr 0 min 54 sec) 
Heartbeat CPU  0 instructions:   42000002 cycles:   20937474 heartbeat IPC: 1.99191 cumulative IPC: 2.00597 (Simulation time: 0 hr 0 min 55 sec) 
Heartbeat CPU  0 instructions:   43000003 cycles:   21428908 heartbeat IPC: 2.03486 cumulative IPC: 2.00664 (Simulation time: 0 hr 0 min 56 sec) 
Heartbeat CPU  0 instructions:   44000000 cycles:   21925752 heartbeat IPC: 2.01270 cumulative IPC: 2.00677 (Simulation time: 0 hr 0 min 58 sec) 
Heartbeat CPU  0 instructions:   45000001 cycles:   22427681 heartbeat IPC: 1.99232 cumulative IPC: 2.00645 (Simulation time: 0 hr 0 min 59 sec) 
Heartbeat CPU  0 instructions:   46000000 cycles:   22929298 heartbeat IPC: 1.99355 cumulative IPC: 2.00617 (Simulation time: 0 hr 1 min 0 sec) 
Heartbeat CPU  0 instructions:   47000002 cycles:   23431344 heartbeat IPC: 1.99185 cumulative IPC: 2.00586 (Simulation time: 0 hr 1 min 2 sec) 
Heartbeat CPU  0 instructions:   48000000 cycles:   23917904 heartbeat IPC: 2.05524 cumulative IPC: 2.00686 (Simulation time: 0 hr 1 min 3 sec) 
Heartbeat CPU  0 instructions:   49000002 cycles:   24419740 heartbeat IPC: 1.99269 cumulative IPC: 2.00657 (Simulation time: 0 hr 1 min 4 sec) 
Heartbeat CPU  0 instructions:   50000003 cycles:   24921073 heartbeat IPC: 1.99468 cumulative IPC: 2.00633 (Simulation time: 0 hr 1 min 5 sec) 
Heartbeat CPU  0 instructions:   51000003 cycles:   25422646 heartbeat IPC: 1.99373 cumulative IPC: 2.00609 (Simulation time: 0 hr 1 min 7 sec) 
Heartbeat CPU  0 instructions:   52000000 cycles:   25916222 heartbeat IPC: 2.02602 cumulative IPC: 2.00647 (Simulation time: 0 hr 1 min 8 sec) 
Heartbeat CPU  0 instructions:   53000001 cycles:   26411245 heartbeat IPC: 2.02011 cumulative IPC: 2.00672 (Simulation time: 0 hr 1 min 9 sec) 
Heartbeat CPU  0 instructions:   54000003 cycles:   26912909 heartbeat IPC: 1.99337 cumulative IPC: 2.00647 (Simulation time: 0 hr 1 min 11 sec) 
Heartbeat CPU  0 instructions:   55000003 cycles:   27414443 heartbeat IPC: 1.99388 cumulative IPC: 2.00624 (Simulation time: 0 hr 1 min 12 sec) 
Heartbeat CPU  0 instructions:   56000000 cycles:   27915864 heartbeat IPC: 1.99433 cumulative IPC: 2.00603 (Simulation time: 0 hr 1 min 13 sec) 
Heartbeat CPU  0 instructions:   57000002 cycles:   28402875 heartbeat IPC: 2.05335 cumulative IPC: 2.00684 (Simulation time: 0 hr 1 min 15 sec) 
Heartbeat CPU  0 instructions:   58000003 cycles:   28904557 heartbeat IPC: 1.99330 cumulative IPC: 2.00660 (Simulation time: 0 hr 1 min 16 sec) 
Heartbeat CPU  0 instructions:   59000001 cycles:   29406243 heartbeat IPC: 1.99327 cumulative IPC: 2.00638 (Simulation time: 0 hr 1 min 17 sec) 
Heartbeat CPU  0 instructions:   60000000 cycles:   29907317 heartbeat IPC: 1.99571 cumulative IPC: 2.00620 (Simulation time: 0 hr 1 min 18 sec) 
Heartbeat CPU  0 instructions:   61000000 cycles:   30403302 heartbeat IPC: 2.01619 cumulative IPC: 2.00636 (Simulation time: 0 hr 1 min 20 sec) 
Heartbeat CPU  0 instructions:   62000001 cycles:   30895752 heartbeat IPC: 2.03067 cumulative IPC: 2.00675 (Simulation time: 0 hr 1 min 21 sec) 
Heartbeat CPU  0 instructions:   63000001 cycles:   31397646 heartbeat IPC: 1.99245 cumulative IPC: 2.00652 (Simulation time: 0 hr 1 min 22 sec) 
Heartbeat CPU  0 instructions:   64000000 cycles:   31899847 heartbeat IPC: 1.99123 cumulative IPC: 2.00628 (Simulation time: 0 hr 1 min 24 sec) 
Heartbeat CPU  0 instructions:   65000000 cycles:   32401447 heartbeat IPC: 1.99362 cumulative IPC: 2.00608 (Simulation time: 0 hr 1 min 25 sec) 
Heartbeat CPU  0 instructions:   66000003 cycles:   32887665 heartbeat IPC: 2.05670 cumulative IPC: 2.00683 (Simulation time: 0 hr 1 min 26 sec) 
Heartbeat CPU  0 instructions:   67000000 cycles:   33389759 heartbeat IPC: 1.99165 cumulative IPC: 2.00660 (Simulation time: 0 hr 1 min 28 sec) 
Heartbeat CPU  0 instructions:   68000000 cycles:   33891685 heartbeat IPC: 1.99233 cumulative IPC: 2.00639 (Simulation time: 0 hr 1 min 29 sec) 
Heartbeat CPU  0 instructions:   69000001 cycles:   34393862 heartbeat IPC: 1.99133 cumulative IPC: 2.00617 (Simulation time: 0 hr 1 min 30 sec) 
Heartbeat CPU  0 instructions:   70000000 cycles:   34891007 heartbeat IPC: 2.01148 cumulative IPC: 2.00625 (Simulation time: 0 hr 1 min 31 sec) 
Heartbeat CPU  0 instructions:   71000001 cycles:   35381417 heartbeat IPC: 2.03911 cumulative IPC: 2.00670 (Simulation time: 0 hr 1 min 33 sec) 
Heartbeat CPU  0 instructions:   72000000 cycles:   35883621 heartbeat IPC: 1.99122 cumulative IPC: 2.00649 (Simulation time: 0 hr 1 min 34 sec) 
Heartbeat CPU  0 instructions:   73000002 cycles:   36384958 heartbeat IPC: 1.99467 cumulative IPC: 2.00632 (Simulation time: 0 hr 1 min 35 sec) 
Heartbeat CPU  0 instructions:   74000003 cycles:   36886836 heartbeat IPC: 1.99252 cumulative IPC: 2.00614 (Simulation time: 0 hr 1 min 37 sec) 
Heartbeat CPU  0 instructions:   75000001 cycles:   37375359 heartbeat IPC: 2.04698 cumulative IPC: 2.00667 (Simulation time: 0 hr 1 min 38 sec) 
Heartbeat CPU  0 instructions:   76000000 cycles:   37874781 heartbeat IPC: 2.00231 cumulative IPC: 2.00661 (Simulation time: 0 hr 1 min 39 sec) 
Heartbeat CPU  0 instructions:   77000000 cycles:   38376745 heartbeat IPC: 1.99217 cumulative IPC: 2.00642 (Simulation time: 0 hr 1 min 41 sec) 
Heartbeat CPU  0 instructions:   78000003 cycles:   38878388 heartbeat IPC: 1.99346 cumulative IPC: 2.00626 (Simulation time: 0 hr 1 min 42 sec) 
Heartbeat CPU  0 instructions:   79000001 cycles:   39378751 heartbeat IPC: 1.99855 cumulative IPC: 2.00616 (Simulation time: 0 hr 1 min 43 sec) 
Heartbeat CPU  0 instructions:   80000000 cycles:   39867284 heartbeat IPC: 2.04694 cumulative IPC: 2.00666 (Simulation time: 0 hr 1 min 44 sec) 
Heartbeat CPU  0 instructions:   81000003 cycles:   40368246 heartbeat IPC: 1.99617 cumulative IPC: 2.00653 (Simulation time: 0 hr 1 min 46 sec) 
Heartbeat CPU  0 instructions:   82000003 cycles:   40869913 heartbeat IPC: 1.99335 cumulative IPC: 2.00637 (Simulation time: 0 hr 1 min 47 sec) 
Heartbeat CPU  0 instructions:   83000001 cycles:   41371842 heartbeat IPC: 1.99231 cumulative IPC: 2.00620 (Simulation time: 0 hr 1 min 48 sec) 
Heartbeat CPU  0 instructions:   84000000 cycles:   41863076 heartbeat IPC: 2.03569 cumulative IPC: 2.00654 (Simulation time: 0 hr 1 min 50 sec) 
Heartbeat CPU  0 instructions:   85000002 cycles:   42360583 heartbeat IPC: 2.01003 cumulative IPC: 2.00658 (Simulation time: 0 hr 1 min 51 sec) 
Heartbeat CPU  0 instructions:   86000002 cycles:   42862438 heartbeat IPC: 1.99261 cumulative IPC: 2.00642 (Simulation time: 0 hr 1 min 52 sec) 
Heartbeat CPU  0 instructions:   87000002 cycles:   43364167 heartbeat IPC: 1.99311 cumulative IPC: 2.00626 (Simulation time: 0 hr 1 min 53 sec) 
Heartbeat CPU  0 instructions:   88000000 cycles:   43866212 heartbeat IPC: 1.99185 cumulative IPC: 2.00610 (Simulation time: 0 hr 1 min 55 sec) 
Heartbeat CPU  0 instructions:   89000003 cycles:   44352925 heartbeat IPC: 2.05461 cumulative IPC: 2.00663 (Simulation time: 0 hr 1 min 56 sec) 
Heartbeat CPU  0 instructions:   90000002 cycles:   44855124 heartbeat IPC: 1.99124 cumulative IPC: 2.00646 (Simulation time: 0 hr 1 min 57 sec) 
Heartbeat CPU  0 instructions:   91000000 cycles:   45356587 heartbeat IPC: 1.99416 cumulative IPC: 2.00632 (Simulation time: 0 hr 1 min 59 sec) 
Heartbeat CPU  0 instructions:   92000000 cycles:   45858364 heartbeat IPC: 1.99292 cumulative IPC: 2.00618 (Simulation time: 0 hr 2 min 0 sec) 
Heartbeat CPU  0 instructions:   93000002 cycles:   46351357 heartbeat IPC: 2.02843 cumulative IPC: 2.00641 (Simulation time: 0 hr 2 min 1 sec) 
Heartbeat CPU  0 instructions:   94000003 cycles:   46847179 heartbeat IPC: 2.01685 cumulative IPC: 2.00652 (Simulation time: 0 hr 2 min 3 sec) 
Heartbeat CPU  0 instructions:   95000003 cycles:   47348831 heartbeat IPC: 1.99341 cumulative IPC: 2.00639 (Simulation time: 0 hr 2 min 4 sec) 
Heartbeat CPU  0 instructions:   96000000 cycles:   47850558 heartbeat IPC: 1.99311 cumulative IPC: 2.00625 (Simulation time: 0 hr 2 min 5 sec) 
Heartbeat CPU  0 instructions:   97000000 cycles:   48352007 heartbeat IPC: 1.99422 cumulative IPC: 2.00612 (Simulation time: 0 hr 2 min 6 sec) 
Heartbeat CPU  0 instructions:   98000000 cycles:   48838734 heartbeat IPC: 2.05454 cumulative IPC: 2.00660 (Simulation time: 0 hr 2 min 8 sec) 
Heartbeat CPU  0 instructions:   99000002 cycles:   49340624 heartbeat IPC: 1.99247 cumulative IPC: 2.00646 (Simulation time: 0 hr 2 min 9 sec) 
Heartbeat CPU  0 instructions:  100000000 cycles:   49842324 heartbeat IPC: 1.99322 cumulative IPC: 2.00633 (Simulation time: 0 hr 2 min 10 sec) 

Warmup complete CPU  0 instructions:  100000003 cycles:   49842325 (Simulation time: 0 hr 2 min 10 sec) 

Heartbeat CPU  0 instructions:  101000001 cycles:   50705847 heartbeat IPC: 1.15805 cumulative IPC: 1.15805 (Simulation time: 0 hr 2 min 12 sec) 
Heartbeat CPU  0 instructions:  102000002 cycles:   51578548 heartbeat IPC: 1.14587 cumulative IPC: 1.15193 (Simulation time: 0 hr 2 min 13 sec) 
Heartbeat CPU  0 instructions:  103000002 cycles:   52461164 heartbeat IPC: 1.13300 cumulative IPC: 1.14555 (Simulation time: 0 hr 2 min 15 sec) 
Heartbeat CPU  0 instructions:  104000000 cycles:   53342525 heartbeat IPC: 1.13461 cumulative IPC: 1.14279 (Simulation time: 0 hr 2 min 16 sec) 
Heartbeat CPU  0 instructions:  105000000 cycles:   54200356 heartbeat IPC: 1.16573 cumulative IPC: 1.14731 (Simulation time: 0 hr 2 min 18 sec) 
Heartbeat CPU  0 instructions:  106000001 cycles:   55063698 heartbeat IPC: 1.15829 cumulative IPC: 1.14912 (Simulation time: 0 hr 2 min 19 sec) 
Heartbeat CPU  0 instructions:  107000002 cycles:   55941489 heartbeat IPC: 1.13922 cumulative IPC: 1.14770 (Simulation time: 0 hr 2 min 21 sec) 
Heartbeat CPU  0 instructions:  108000000 cycles:   56817553 heartbeat IPC: 1.14147 cumulative IPC: 1.14692 (Simulation time: 0 hr 2 min 22 sec) 
Heartbeat CPU  0 instructions:  109000003 cycles:   57697333 heartbeat IPC: 1.13665 cumulative IPC: 1.14577 (Simulation time: 0 hr 2 min 23 sec) 
Heartbeat CPU  0 instructions:  110000001 cycles:   58561111 heartbeat IPC: 1.15770 cumulative IPC: 1.14695 (Simulation time: 0 hr 2 min 25 sec) 
Heartbeat CPU  0 instructions:  111000003 cycles:   59419223 heartbeat IPC: 1.16535 cumulative IPC: 1.14860 (Simulation time: 0 hr 2 min 26 sec) 
Heartbeat CPU  0 instructions:  112000000 cycles:   60299738 heartbeat IPC: 1.13570 cumulative IPC: 1.14751 (Simulation time: 0 hr 2 min 28 sec) 
Heartbeat CPU  0 instructions:  113000001 cycles:   61175072 heartbeat IPC: 1.14242 cumulative IPC: 1.14712 (Simulation time: 0 hr 2 min 29 sec) 
Heartbeat CPU  0 instructions:  114000002 cycles:   62055245 heartbeat IPC: 1.13614 cumulative IPC: 1.14633 (Simulation time: 0 hr 2 min 31 sec) 
Heartbeat CPU  0 instructions:  115000000 cycles:   62921585 heartbeat IPC: 1.15428 cumulative IPC: 1.14685 (Simulation time: 0 hr 2 min 32 sec) 
Heartbeat CPU  0 instructions:  116000000 cycles:   63786640 heartbeat IPC: 1.15600 cumulative IPC: 1.14742 (Simulation time: 0 hr 2 min 34 sec) 
Heartbeat CPU  0 instructions:  117000002 cycles:   64657840 heartbeat IPC: 1.14784 cumulative IPC: 1.14745 (Simulation time: 0 hr 2 min 35 sec) 
Heartbeat CPU  0 instructions:  118000001 cycles:   65529545 heartbeat IPC: 1.14718 cumulative IPC: 1.14743 (Simulation time: 0 hr 2 min 37 sec) 
Heartbeat CPU  0 instructions:  119000002 cycles:   66409872 heartbeat IPC: 1.13594 cumulative IPC: 1.14682 (Simulation time: 0 hr 2 min 38 sec) 
Heartbeat CPU  0 instructions:  120000000 cycles:   67283940 heartbeat IPC: 1.14407 cumulative IPC: 1.14668 (Simulation time: 0 hr 2 min 40 sec) 
Heartbeat CPU  0 instructions:  121000001 cycles:   68149147 heartbeat IPC: 1.15579 cumulative IPC: 1.14711 (Simulation time: 0 hr 2 min 41 sec) 
Heartbeat CPU  0 instructions:  122000002 cycles:   69016503 heartbeat IPC: 1.15293 cumulative IPC: 1.14738 (Simulation time: 0 hr 2 min 43 sec) 
Heartbeat CPU  0 instructions:  123000001 cycles:   69887796 heartbeat IPC: 1.14772 cumulative IPC: 1.14739 (Simulation time: 0 hr 2 min 44 sec) 
Heartbeat CPU  0 instructions:  124000000 cycles:   70768478 heartbeat IPC: 1.13548 cumulative IPC: 1.14689 (Simulation time: 0 hr 2 min 45 sec) 
Heartbeat CPU  0 instructions:  125000000 cycles:   71652479 heartbeat IPC: 1.13122 cumulative IPC: 1.14625 (Simulation time: 0 hr 2 min 47 sec) 
Heartbeat CPU  0 instructions:  126000000 cycles:   72509699 heartbeat IPC: 1.16656 cumulative IPC: 1.14702 (Simulation time: 0 hr 2 min 48 sec) 
Heartbeat CPU  0 instructions:  127000000 cycles:   73373600 heartbeat IPC: 1.15754 cumulative IPC: 1.14741 (Simulation time: 0 hr 2 min 50 sec) 
Heartbeat CPU  0 instructions:  128000000 cycles:   74242965 heartbeat IPC: 1.15026 cumulative IPC: 1.14751 (Simulation time: 0 hr 2 min 51 sec) 
Heartbeat CPU  0 instructions:  129000002 cycles:   75123172 heartbeat IPC: 1.13610 cumulative IPC: 1.14711 (Simulation time: 0 hr 2 min 53 sec) 
Heartbeat CPU  0 instructions:  130000002 cycles:   76008700 heartbeat IPC: 1.12927 cumulative IPC: 1.14651 (Simulation time: 0 hr 2 min 54 sec) 
Heartbeat CPU  0 instructions:  131000002 cycles:   76871633 heartbeat IPC: 1.15884 cumulative IPC: 1.14690 (Simulation time: 0 hr 2 min 56 sec) 
Heartbeat CPU  0 instructions:  132000000 cycles:   77734635 heartbeat IPC: 1.15874 cumulative IPC: 1.14727 (Simulation time: 0 hr 2 min 57 sec) 
Heartbeat CPU  0 instructions:  133000000 cycles:   78603357 heartbeat IPC: 1.15112 cumulative IPC: 1.14739 (Simulation time: 0 hr 2 min 59 sec) 
Heartbeat CPU  0 instructions:  134000000 cycles:   79481270 heartbeat IPC: 1.13907 cumulative IPC: 1.14714 (Simulation time: 0 hr 3 min 0 sec) 
Heartbeat CPU  0 instructions:  135000002 cycles:   80365221 heartbeat IPC: 1.13129 cumulative IPC: 1.14668 (Simulation time: 0 hr 3 min 2 sec) 
Heartbeat CPU  0 instructions:  136000000 cycles:   81227599 heartbeat IPC: 1.15958 cumulative IPC: 1.14703 (Simulation time: 0 hr 3 min 3 sec) 
Heartbeat CPU  0 instructions:  137000001 cycles:   82088573 heartbeat IPC: 1.16148 cumulative IPC: 1.14742 (Simulation time: 0 hr 3 min 5 sec) 
Heartbeat CPU  0 instructions:  138000003 cycles:   82957010 heartbeat IPC: 1.15150 cumulative IPC: 1.14753 (Simulation time: 0 hr 3 min 6 sec) 
Heartbeat CPU  0 instructions:  139000003 cycles:   83830887 heartbeat IPC: 1.14433 cumulative IPC: 1.14744 (Simulation time: 0 hr 3 min 7 sec) 
Heartbeat CPU  0 instructions:  140000000 cycles:   84712817 heartbeat IPC: 1.13387 cumulative IPC: 1.14710 (Simulation time: 0 hr 3 min 9 sec) 
Heartbeat CPU  0 instructions:  141000003 cycles:   85577693 heartbeat IPC: 1.15624 cumulative IPC: 1.14732 (Simulation time: 0 hr 3 min 10 sec) 
Heartbeat CPU  0 instructions:  142000000 cycles:   86433252 heartbeat IPC: 1.16882 cumulative IPC: 1.14783 (Simulation time: 0 hr 3 min 12 sec) 
Heartbeat CPU  0 instructions:  143000000 cycles:   87297867 heartbeat IPC: 1.15658 cumulative IPC: 1.14803 (Simulation time: 0 hr 3 min 13 sec) 
Heartbeat CPU  0 instructions:  144000000 cycles:   88172922 heartbeat IPC: 1.14279 cumulative IPC: 1.14791 (Simulation time: 0 hr 3 min 15 sec) 
Heartbeat CPU  0 instructions:  145000002 cycles:   89052948 heartbeat IPC: 1.13633 cumulative IPC: 1.14765 (Simulation time: 0 hr 3 min 16 sec) 
Heartbeat CPU  0 instructions:  146000002 cycles:   89926089 heartbeat IPC: 1.14529 cumulative IPC: 1.14760 (Simulation time: 0 hr 3 min 18 sec) 
Heartbeat CPU  0 instructions:  147000002 cycles:   90847829 heartbeat IPC: 1.08490 cumulative IPC: 1.14619 (Simulation time: 0 hr 3 min 19 sec) 
Heartbeat CPU  0 instructions:  148000000 cycles:   92168213 heartbeat IPC: 0.75735 cumulative IPC: 1.13406 (Simulation time: 0 hr 3 min 21 sec) 
Heartbeat CPU  0 instructions:  149000002 cycles:   93501268 heartbeat IPC: 0.75016 cumulative IPC: 1.12234 (Simulation time: 0 hr 3 min 22 sec) 
Heartbeat CPU  0 instructions:  150000002 cycles:   94826081 heartbeat IPC: 0.75482 cumulative IPC: 1.11151 (Simulation time: 0 hr 3 min 24 sec) 
Heartbeat CPU  0 instructions:  151000000 cycles:   96142721 heartbeat IPC: 0.75951 cumulative IPC: 1.10150 (Simulation time: 0 hr 3 min 26 sec) 
Heartbeat CPU  0 instructions:  152000000 cycles:   97465215 heartbeat IPC: 0.75615 cumulative IPC: 1.09191 (Simulation time: 0 hr 3 min 27 sec) 
Heartbeat CPU  0 instructions:  153000003 cycles:   98791375 heartbeat IPC: 0.75406 cumulative IPC: 1.08276 (Simulation time: 0 hr 3 min 29 sec) 
Heartbeat CPU  0 instructions:  154000002 cycles:  100129273 heartbeat IPC: 0.74744 cumulative IPC: 1.07384 (Simulation time: 0 hr 3 min 31 sec) 
Heartbeat CPU  0 instructions:  155000003 cycles:  101460421 heartbeat IPC: 0.75123 cumulative IPC: 1.06552 (Simulation time: 0 hr 3 min 32 sec) 
Heartbeat CPU  0 instructions:  156000000 cycles:  102793845 heartbeat IPC: 0.74995 cumulative IPC: 1.05757 (Simulation time: 0 hr 3 min 34 sec) 
Heartbeat CPU  0 instructions:  157000003 cycles:  104122402 heartbeat IPC: 0.75270 cumulative IPC: 1.05011 (Simulation time: 0 hr 3 min 36 sec) 
Heartbeat CPU  0 instructions:  158000003 cycles:  105444598 heartbeat IPC: 0.75632 cumulative IPC: 1.04312 (Simulation time: 0 hr 3 min 37 sec) 
Heartbeat CPU  0 instructions:  159000003 cycles:  106766754 heartbeat IPC: 0.75634 cumulative IPC: 1.03646 (Simulation time: 0 hr 3 min 39 sec) 
Heartbeat CPU  0 instructions:  160000000 cycles:  108089838 heartbeat IPC: 0.75581 cumulative IPC: 1.03009 (Simulation time: 0 hr 3 min 41 sec) 
Heartbeat CPU  0 instructions:  161000000 cycles:  109418463 heartbeat IPC: 0.75266 cumulative IPC: 1.02390 (Simulation time: 0 hr 3 min 42 sec) 
Heartbeat CPU  0 instructions:  162000000 cycles:  110747401 heartbeat IPC: 0.75248 cumulative IPC: 1.01798 (Simulation time: 0 hr 3 min 44 sec) 
Heartbeat CPU  0 instructions:  163000002 cycles:  112078197 heartbeat IPC: 0.75143 cumulative IPC: 1.01228 (Simulation time: 0 hr 3 min 46 sec) 
Heartbeat CPU  0 instructions:  164000000 cycles:  113402207 heartbeat IPC: 0.75528 cumulative IPC: 1.00692 (Simulation time: 0 hr 3 min 47 sec) 
Heartbeat CPU  0 instructions:  165000001 cycles:  114733636 heartbeat IPC: 0.75107 cumulative IPC: 1.00167 (Simulation time: 0 hr 3 min 49 sec) 
Heartbeat CPU  0 instructions:  166000001 cycles:  116068926 heartbeat IPC: 0.74890 cumulative IPC: 0.99658 (Simulation time: 0 hr 3 min 51 sec) 
Heartbeat CPU  0 instructions:  167000001 cycles:  117393400 heartbeat IPC: 0.75502 cumulative IPC: 0.99184 (Simulation time: 0 hr 3 min 52 sec) 
Heartbeat CPU  0 instructions:  168000000 cycles:  118730130 heartbeat IPC: 0.74809 cumulative IPC: 0.98711 (Simulation time: 0 hr 3 min 54 sec) 
Heartbeat CPU  0 instructions:  169000002 cycles:  120062248 heartbeat IPC: 0.75069 cumulative IPC: 0.98263 (Simulation time: 0 hr 3 min 55 sec) 
Heartbeat CPU  0 instructions:  170000002 cycles:  121377209 heartbeat IPC: 0.76048 cumulative IPC: 0.97854 (Simulation time: 0 hr 3 min 57 sec) 
Heartbeat CPU  0 instructions:  171000002 cycles:  122698234 heartbeat IPC: 0.75699 cumulative IPC: 0.97453 (Simulation time: 0 hr 3 min 59 sec) 
Heartbeat CPU  0 instructions:  172000000 cycles:  124022011 heartbeat IPC: 0.75541 cumulative IPC: 0.97062 (Simulation time: 0 hr 4 min 0 sec) 
Heartbeat CPU  0 instructions:  173000002 cycles:  125347808 heartbeat IPC: 0.75426 cumulative IPC: 0.96682 (Simulation time: 0 hr 4 min 2 sec) 
Heartbeat CPU  0 instructions:  174000002 cycles:  126677610 heartbeat IPC: 0.75199 cumulative IPC: 0.96310 (Simulation time: 0 hr 4 min 4 sec) 
Heartbeat CPU  0 instructions:  175000002 cycles:  128008389 heartbeat IPC: 0.75144 cumulative IPC: 0.95950 (Simulation time: 0 hr 4 min 5 sec) 
Heartbeat CPU  0 instructions:  176000000 cycles:  129332990 heartbeat IPC: 0.75494 cumulative IPC: 0.95609 (Simulation time: 0 hr 4 min 7 sec) 
Heartbeat CPU  0 instructions:  177000003 cycles:  130675613 heartbeat IPC: 0.74481 cumulative IPC: 0.95258 (Simulation time: 0 hr 4 min 9 sec) 
Heartbeat CPU  0 instructions:  178000000 cycles:  132013657 heartbeat IPC: 0.74736 cumulative IPC: 0.94924 (Simulation time: 0 hr 4 min 10 sec) 
Heartbeat CPU  0 instructions:  179000002 cycles:  133347815 heartbeat IPC: 0.74954 cumulative IPC: 0.94605 (Simulation time: 0 hr 4 min 12 sec) 
Heartbeat CPU  0 instructions:  180000000 cycles:  134662045 heartbeat IPC: 0.76090 cumulative IPC: 0.94318 (Simulation time: 0 hr 4 min 14 sec) 
Heartbeat CPU  0 instructions:  181000003 cycles:  135990388 heartbeat IPC: 0.75282 cumulative IPC: 0.94024 (Simulation time: 0 hr 4 min 15 sec) 
Heartbeat CPU  0 instructions:  182000002 cycles:  137309869 heartbeat IPC: 0.75787 cumulative IPC: 0.93749 (Simulation time: 0 hr 4 min 17 sec) 
Heartbeat CPU  0 instructions:  183000000 cycles:  138638067 heartbeat IPC: 0.75290 cumulative IPC: 0.93473 (Simulation time: 0 hr 4 min 19 sec) 
Heartbeat CPU  0 instructions:  184000000 cycles:  139964933 heartbeat IPC: 0.75366 cumulative IPC: 0.93206 (Simulation time: 0 hr 4 min 20 sec) 
Heartbeat CPU  0 instructions:  185000003 cycles:  141292832 heartbeat IPC: 0.75307 cumulative IPC: 0.92946 (Simulation time: 0 hr 4 min 22 sec) 
Heartbeat CPU  0 instructions:  186000001 cycles:  142610874 heartbeat IPC: 0.75870 cumulative IPC: 0.92704 (Simulation time: 0 hr 4 min 24 sec) 
Heartbeat CPU  0 instructions:  187000002 cycles:  143948246 heartbeat IPC: 0.74774 cumulative IPC: 0.92449 (Simulation time: 0 hr 4 min 25 sec) 
Heartbeat CPU  0 instructions:  188000000 cycles:  145270344 heartbeat IPC: 0.75637 cumulative IPC: 0.92216 (Simulation time: 0 hr 4 min 27 sec) 
Heartbeat CPU  0 instructions:  189000001 cycles:  146610865 heartbeat IPC: 0.74598 cumulative IPC: 0.91972 (Simulation time: 0 hr 4 min 29 sec) 
Heartbeat CPU  0 instructions:  190000003 cycles:  147937990 heartbeat IPC: 0.75351 cumulative IPC: 0.91747 (Simulation time: 0 hr 4 min 30 sec) 
Heartbeat CPU  0 instructions:  191000002 cycles:  149260745 heartbeat IPC: 0.75600 cumulative IPC: 0.91532 (Simulation time: 0 hr 4 min 32 sec) 
Heartbeat CPU  0 instructions:  192000000 cycles:  150573131 heartbeat IPC: 0.76197 cumulative IPC: 0.91333 (Simulation time: 0 hr 4 min 34 sec) 
Heartbeat CPU  0 instructions:  193000003 cycles:  151713687 heartbeat IPC: 0.87677 cumulative IPC: 0.91292 (Simulation time: 0 hr 4 min 35 sec) 
Heartbeat CPU  0 instructions:  194000001 cycles:  155676177 heartbeat IPC: 0.25237 cumulative IPC: 0.88818 (Simulation time: 0 hr 4 min 38 sec) 
Heartbeat CPU  0 instructions:  195000000 cycles:  159185464 heartbeat IPC: 0.28496 cumulative IPC: 0.86882 (Simulation time: 0 hr 4 min 41 sec) 
Heartbeat CPU  0 instructions:  196000000 cycles:  159912177 heartbeat IPC: 1.37606 cumulative IPC: 0.87217 (Simulation time: 0 hr 4 min 42 sec) 
Heartbeat CPU  0 instructions:  197000000 cycles:  160639497 heartbeat IPC: 1.37491 cumulative IPC: 0.87547 (Simulation time: 0 hr 4 min 44 sec) 
Heartbeat CPU  0 instructions:  198000003 cycles:  161364726 heartbeat IPC: 1.37888 cumulative IPC: 0.87875 (Simulation time: 0 hr 4 min 45 sec) 
Heartbeat CPU  0 instructions:  199000002 cycles:  162099660 heartbeat IPC: 1.36067 cumulative IPC: 0.88190 (Simulation time: 0 hr 4 min 47 sec) 
Heartbeat CPU  0 instructions:  200000000 cycles:  162825270 heartbeat IPC: 1.37815 cumulative IPC: 0.88509 (Simulation time: 0 hr 4 min 48 sec) 
Finished CPU 0 instructions: 100000000 cycles: 112982974 cumulative IPC: 0.88509 (Simulation time: 0 hr 4 min 48 sec) 

ChampSim completed all CPUs

[ROI Statistics]
Core_0_instructions 100000000
Core_0_cycles 112982974
Core_0_IPC 0.88509

Core_0_branch_prediction_accuracy 99.15344
Core_0_branch_MPKI 0.35029
Core_0_average_ROB_occupancy_at_mispredict 249.80216

Core_0_L1D_total_access 27457503
Core_0_L1D_total_hit 26015641
Core_0_L1D_total_miss 1441862
Core_0_L1D_loads 22973841
Core_0_L1D_load_hit 21868976
Core_0_L1D_load_miss 1104865
Core_0_L1D_RFOs 4483662
Core_0_L1D_RFO_hit 4146665
Core_0_L1D_RFO_miss 336997
Core_0_L1D_prefetches 0
Core_0_L1D_prefetch_hit 0
Core_0_L1D_prefetch_miss 0
Core_0_L1D_writebacks 0
Core_0_L1D_writeback_hit 0
Core_0_L1D_writeback_miss 0
Core_0_L1D_prefetch_requested 0
Core_0_L1D_prefetch_issued 0
Core_0_L1D_prefetch_useful 0
Core_0_L1D_prefetch_useless 0
Core_0_L1D_prefetch_late 0
Core_0_L1D_average_miss_latency 76.09801

Core_0_L1I_total_access 22741072
Core_0_L1I_total_hit 22740852
Core_0_L1I_total_miss 220
Core_0_L1I_loads 22741072
Core_0_L1I_load_hit 22740852
Core_0_L1I_load_miss 220
Core_0_L1I_RFOs 0
Core_0_L1I_RFO_hit 0
Core_0_L1I_RFO_miss 0
Core_0_L1I_prefetches 0
Core_0_L1I_prefetch_hit 0
Core_0_L1I_prefetch_miss 0
Core_0_L1I_writebacks 0
Core_0_L1I_writeback_hit 0
Core_0_L1I_writeback_miss 0
Core_0_L1I_prefetch_requested 0
Core_0_L1I_prefetch_issued 0
Core_0_L1I_prefetch_useful 0
Core_0_L1I_prefetch_useless 0
Core_0_L1I_prefetch_late 0
Core_0_L1I_average_miss_latency 183.42273

Core_0_L2C_total_access 2885235
Core_0_L2C_total_hit 1846130
Core_0_L2C_total_miss 1039105
Core_0_L2C_loads 1105080
Core_0_L2C_load_hit 841769
Core_0_L2C_load_miss 263311
Core_0_L2C_RFOs 336943
Core_0_L2C_RFO_hit 137030
Core_0_L2C_RFO_miss 199913
Core_0_L2C_prefetches 890078
Core_0_L2C_prefetch_hit 314331
Core_0_L2C_prefetch_miss 575747
Core_0_L2C_writebacks 553134
Core_0_L2C_writeback_hit 553000
Core_0_L2C_writeback_miss 134
Core_0_L2C_prefetch_requested 2362075
Core_0_L2C_prefetch_issued 2325542
Core_0_L2C_prefetch_useful 1017616
Core_0_L2C_prefetch_useless 51065
Core_0_L2C_prefetch_late 186418
Core_0_L2C_average_miss_latency 137.10824

Core_0_LLC_total_access 1898171
Core_0_LLC_total_hit 903043
Core_0_LLC_total_miss 995128
Core_0_LLC_loads 76913
Core_0_LLC_load_hit 24005
Core_0_LLC_load_miss 52908
Core_0_LLC_RFOs 199913
Core_0_LLC_RFO_hit 8759
Core_0_LLC_RFO_miss 191154
Core_0_LLC_prefetches 1216658
Core_0_LLC_prefetch_hit 476766
Core_0_LLC_prefetch_miss 739892
Core_0_LLC_writebacks 404687
Core_0_LLC_writeback_hit 393513
Core_0_LLC_writeback_miss 11174
Core_0_LLC_prefetch_requested 1199678
Core_0_LLC_prefetch_issued 1180771
Core_0_LLC_prefetch_useful 41882
Core_0_LLC_prefetch_useless 1033857
Core_0_LLC_prefetch_late 1017
Core_0_LLC_average_miss_latency 237.86226

Core_0_major_page_fault 0
Core_0_minor_page_fault 15627

CPU 0 L2C next line prefetcher final stats
LLC Next Line Prefetcher Final Stats: none
Channel_0_RQ_row_buffer_hit 328715
Channel_0_RQ_row_buffer_miss 655232
Channel_0_WQ_row_buffer_hit 57988
Channel_0_WQ_row_buffer_miss 329546
Channel_0_WQ_full 0
Channel_0_dbus_congested 359208

avg_congested_cycle 10
