*************************************************
   ChampSim Multicore Out-of-Order Simulator
   Last compiled: Dec 23 2023 16:41:46
*************************************************

trace_0 ./test_trace/437.leslie3d-134B.champsimtrace.xz
CPU 0 L2C next line prefetcher
Initialize DRRIP state
Assign rand_sets[0]: 454  LLC: 2048
rand_sets[0]: 454
Assign rand_sets[1]: 1662  LLC: 2048
rand_sets[1]: 1662
Assign rand_sets[2]: 1921  LLC: 2048
rand_sets[2]: 1921
Assign rand_sets[3]: 1131  LLC: 2048
rand_sets[3]: 1131
Assign rand_sets[4]: 331  LLC: 2048
rand_sets[4]: 331
Assign rand_sets[5]: 1531  LLC: 2048
rand_sets[5]: 1531
Assign rand_sets[6]: 482  LLC: 2048
rand_sets[6]: 482
Assign rand_sets[7]: 1275  LLC: 2048
rand_sets[7]: 1275
Assign rand_sets[8]: 1876  LLC: 2048
rand_sets[8]: 1876
Assign rand_sets[9]: 2038  LLC: 2048
rand_sets[9]: 2038
Assign rand_sets[10]: 701  LLC: 2048
rand_sets[10]: 701
Assign rand_sets[11]: 479  LLC: 2048
rand_sets[11]: 479
Assign rand_sets[12]: 892  LLC: 2048
rand_sets[12]: 892
Assign rand_sets[13]: 1820  LLC: 2048
rand_sets[13]: 1820
Assign rand_sets[14]: 1505  LLC: 2048
rand_sets[14]: 1505
Assign rand_sets[15]: 1159  LLC: 2048
rand_sets[15]: 1159
Assign rand_sets[16]: 513  LLC: 2048
rand_sets[16]: 513
Assign rand_sets[17]: 703  LLC: 2048
rand_sets[17]: 703
Assign rand_sets[18]: 561  LLC: 2048
rand_sets[18]: 561
Assign rand_sets[19]: 990  LLC: 2048
rand_sets[19]: 990
Assign rand_sets[20]: 342  LLC: 2048
rand_sets[20]: 342
Assign rand_sets[21]: 882  LLC: 2048
rand_sets[21]: 882
Assign rand_sets[22]: 15  LLC: 2048
rand_sets[22]: 15
Assign rand_sets[23]: 71  LLC: 2048
rand_sets[23]: 71
Assign rand_sets[24]: 1127  LLC: 2048
rand_sets[24]: 1127
Assign rand_sets[25]: 1382  LLC: 2048
rand_sets[25]: 1382
Assign rand_sets[26]: 647  LLC: 2048
rand_sets[26]: 647
Assign rand_sets[27]: 857  LLC: 2048
rand_sets[27]: 857
Assign rand_sets[28]: 1450  LLC: 2048
rand_sets[28]: 1450
Assign rand_sets[29]: 1160  LLC: 2048
rand_sets[29]: 1160
Assign rand_sets[30]: 1852  LLC: 2048
rand_sets[30]: 1852
Assign rand_sets[31]: 1881  LLC: 2048
rand_sets[31]: 1881
Assign rand_sets[32]: 1770  LLC: 2048
rand_sets[32]: 1770
Assign rand_sets[33]: 1622  LLC: 2048
rand_sets[33]: 1622
Assign rand_sets[34]: 275  LLC: 2048
rand_sets[34]: 275
Assign rand_sets[35]: 635  LLC: 2048
rand_sets[35]: 635
Assign rand_sets[36]: 466  LLC: 2048
rand_sets[36]: 466
Assign rand_sets[37]: 1413  LLC: 2048
rand_sets[37]: 1413
Assign rand_sets[38]: 417  LLC: 2048
rand_sets[38]: 417
Assign rand_sets[39]: 472  LLC: 2048
rand_sets[39]: 472
Assign rand_sets[40]: 1340  LLC: 2048
rand_sets[40]: 1340
Assign rand_sets[41]: 852  LLC: 2048
rand_sets[41]: 852
Assign rand_sets[42]: 1365  LLC: 2048
rand_sets[42]: 1365
Assign rand_sets[43]: 47  LLC: 2048
rand_sets[43]: 47
Assign rand_sets[44]: 823  LLC: 2048
rand_sets[44]: 823
Assign rand_sets[45]: 686  LLC: 2048
rand_sets[45]: 686
Assign rand_sets[46]: 1637  LLC: 2048
rand_sets[46]: 1637
Assign rand_sets[47]: 1115  LLC: 2048
rand_sets[47]: 1115
Assign rand_sets[48]: 986  LLC: 2048
rand_sets[48]: 986
Assign rand_sets[49]: 258  LLC: 2048
rand_sets[49]: 258
Assign rand_sets[50]: 633  LLC: 2048
rand_sets[50]: 633
Assign rand_sets[51]: 920  LLC: 2048
rand_sets[51]: 920
Assign rand_sets[52]: 204  LLC: 2048
rand_sets[52]: 204
Assign rand_sets[53]: 227  LLC: 2048
rand_sets[53]: 227
Assign rand_sets[54]: 1818  LLC: 2048
rand_sets[54]: 1818
Assign rand_sets[55]: 886  LLC: 2048
rand_sets[55]: 886
Assign rand_sets[56]: 1422  LLC: 2048
rand_sets[56]: 1422
Assign rand_sets[57]: 607  LLC: 2048
rand_sets[57]: 607
Assign rand_sets[58]: 217  LLC: 2048
rand_sets[58]: 217
Assign rand_sets[59]: 1945  LLC: 2048
rand_sets[59]: 1945
Assign rand_sets[60]: 143  LLC: 2048
rand_sets[60]: 143
Assign rand_sets[61]: 1311  LLC: 2048
rand_sets[61]: 1311
Assign rand_sets[62]: 319  LLC: 2048
rand_sets[62]: 319
Assign rand_sets[63]: 1846  LLC: 2048
rand_sets[63]: 1846
warmup_instructions 100000000
simulation_instructions 100000000
champsim_seed 218

num_cpus 1
cpu_freq 4000
dram_io_freq 2400
page_size 4096
block_size 64
max_read_per_cycle 8
max_fill_per_cycle 1
dram_channels 1
dram_ranks 1
dram_banks 8
dram_rows 65536
dram_columns 128
dram_row_size 8
dram_size 4096
dram_pages 1048576

fetch_width 6
decode_width 6
exec_width 4
lq_width 2
sq_width 2
retire_width 4
scheduler_size 128
branch_mispredict_penalty 20
rob_size 256
lq_size 72
sq_size 56
num_instr_destinations_sparc 4
num_instr_destinations 2
num_instr_sources 4

itlb_set 16
itlb_way 8
itlb_rq_size 16
itlb_wq_size 16
itlb_pq_size 0
itlb_mshr_size 8
itlb_latency 1

dtlb_set 16
dtlb_way 4
dtlb_rq_size 16
dtlb_wq_size 16
dtlb_pq_size 0
dtlb_mshr_size 8
dtlb_latency 1

stlb_set 128
stlb_way 12
stlb_rq_size 32
stlb_wq_size 32
stlb_pq_size 0
stlb_mshr_size 16
stlb_latency 8

l1i_size 32
l1i_set 64
l1i_way 8
l1i_rq_size 64
l1i_wq_size 64
l1i_pq_size 8
l1i_mshr_size 8
l1i_latency 1

l1d_size 32
l1d_set 64
l1d_way 8
l1d_rq_size 64
l1d_wq_size 64
l1d_pq_size 8
l1d_mshr_size 16
l1d_latency 4

l2c_size 512
l2c_set 1024
l2c_way 8
l2c_rq_size 32
l2c_wq_size 32
l2c_pq_size 16
l2c_mshr_size 32
l2c_latency 10

llc_size 2048
llc_set 2048
llc_way 16
llc_rq_size 32
llc_wq_size 32
llc_pq_size 32
llc_mshr_size 64
llc_latency 20

dram_channel_width 8
dram_wq_size 64
dram_rq_size 64
tRP 15
tRCD 15
tCAS 12.5
dram_dbus_turn_around_time 30
dram_write_high_wm 56
dram_write_low_wm 48
min_dram_writes_per_switch 16
dram_mtps 2400
dram_dbus_return_time 13


Heartbeat CPU  0 instructions:    1000002 cycles:     502312 heartbeat IPC: 1.99080 cumulative IPC: 1.99080 (Simulation time: 0 hr 0 min 1 sec) 
Heartbeat CPU  0 instructions:    2000001 cycles:     993811 heartbeat IPC: 2.03459 cumulative IPC: 2.01246 (Simulation time: 0 hr 0 min 3 sec) 
Heartbeat CPU  0 instructions:    3000001 cycles:    1490503 heartbeat IPC: 2.01332 cumulative IPC: 2.01274 (Simulation time: 0 hr 0 min 4 sec) 
Heartbeat CPU  0 instructions:    4000000 cycles:    1992259 heartbeat IPC: 1.99300 cumulative IPC: 2.00777 (Simulation time: 0 hr 0 min 6 sec) 
Heartbeat CPU  0 instructions:    5000000 cycles:    2494267 heartbeat IPC: 1.99200 cumulative IPC: 2.00460 (Simulation time: 0 hr 0 min 7 sec) 
Heartbeat CPU  0 instructions:    6000001 cycles:    2996137 heartbeat IPC: 1.99255 cumulative IPC: 2.00258 (Simulation time: 0 hr 0 min 9 sec) 
Heartbeat CPU  0 instructions:    7000000 cycles:    3482904 heartbeat IPC: 2.05437 cumulative IPC: 2.00982 (Simulation time: 0 hr 0 min 10 sec) 
Heartbeat CPU  0 instructions:    8000000 cycles:    3984610 heartbeat IPC: 1.99320 cumulative IPC: 2.00772 (Simulation time: 0 hr 0 min 11 sec) 
Heartbeat CPU  0 instructions:    9000001 cycles:    4485760 heartbeat IPC: 1.99541 cumulative IPC: 2.00635 (Simulation time: 0 hr 0 min 13 sec) 
Heartbeat CPU  0 instructions:   10000000 cycles:    4987763 heartbeat IPC: 1.99202 cumulative IPC: 2.00491 (Simulation time: 0 hr 0 min 14 sec) 
Heartbeat CPU  0 instructions:   11000001 cycles:    5481671 heartbeat IPC: 2.02467 cumulative IPC: 2.00669 (Simulation time: 0 hr 0 min 16 sec) 
Heartbeat CPU  0 instructions:   12000000 cycles:    5976494 heartbeat IPC: 2.02092 cumulative IPC: 2.00787 (Simulation time: 0 hr 0 min 17 sec) 
Heartbeat CPU  0 instructions:   13000003 cycles:    6478081 heartbeat IPC: 1.99368 cumulative IPC: 2.00677 (Simulation time: 0 hr 0 min 19 sec) 
Heartbeat CPU  0 instructions:   14000001 cycles:    6979632 heartbeat IPC: 1.99381 cumulative IPC: 2.00584 (Simulation time: 0 hr 0 min 20 sec) 
Heartbeat CPU  0 instructions:   15000003 cycles:    7481337 heartbeat IPC: 1.99321 cumulative IPC: 2.00499 (Simulation time: 0 hr 0 min 21 sec) 
Heartbeat CPU  0 instructions:   16000000 cycles:    7968441 heartbeat IPC: 2.05294 cumulative IPC: 2.00792 (Simulation time: 0 hr 0 min 23 sec) 
Heartbeat CPU  0 instructions:   17000001 cycles:    8470168 heartbeat IPC: 1.99312 cumulative IPC: 2.00704 (Simulation time: 0 hr 0 min 24 sec) 
Heartbeat CPU  0 instructions:   18000001 cycles:    8971536 heartbeat IPC: 1.99454 cumulative IPC: 2.00635 (Simulation time: 0 hr 0 min 26 sec) 
Heartbeat CPU  0 instructions:   19000003 cycles:    9472674 heartbeat IPC: 1.99546 cumulative IPC: 2.00577 (Simulation time: 0 hr 0 min 27 sec) 
Heartbeat CPU  0 instructions:   20000000 cycles:    9969484 heartbeat IPC: 2.01284 cumulative IPC: 2.00612 (Simulation time: 0 hr 0 min 29 sec) 
Heartbeat CPU  0 instructions:   21000001 cycles:   10461490 heartbeat IPC: 2.03250 cumulative IPC: 2.00736 (Simulation time: 0 hr 0 min 30 sec) 
Heartbeat CPU  0 instructions:   22000003 cycles:   10963457 heartbeat IPC: 1.99217 cumulative IPC: 2.00667 (Simulation time: 0 hr 0 min 32 sec) 
Heartbeat CPU  0 instructions:   23000001 cycles:   11465612 heartbeat IPC: 1.99141 cumulative IPC: 2.00600 (Simulation time: 0 hr 0 min 33 sec) 
Heartbeat CPU  0 instructions:   24000000 cycles:   11967079 heartbeat IPC: 1.99415 cumulative IPC: 2.00550 (Simulation time: 0 hr 0 min 35 sec) 
Heartbeat CPU  0 instructions:   25000003 cycles:   12453707 heartbeat IPC: 2.05496 cumulative IPC: 2.00743 (Simulation time: 0 hr 0 min 36 sec) 
Heartbeat CPU  0 instructions:   26000001 cycles:   12955650 heartbeat IPC: 1.99225 cumulative IPC: 2.00685 (Simulation time: 0 hr 0 min 37 sec) 
Heartbeat CPU  0 instructions:   27000003 cycles:   13457806 heartbeat IPC: 1.99142 cumulative IPC: 2.00627 (Simulation time: 0 hr 0 min 39 sec) 
Heartbeat CPU  0 instructions:   28000000 cycles:   13959724 heartbeat IPC: 1.99235 cumulative IPC: 2.00577 (Simulation time: 0 hr 0 min 40 sec) 
Heartbeat CPU  0 instructions:   29000002 cycles:   14457167 heartbeat IPC: 2.01028 cumulative IPC: 2.00593 (Simulation time: 0 hr 0 min 42 sec) 
Heartbeat CPU  0 instructions:   30000000 cycles:   14947687 heartbeat IPC: 2.03865 cumulative IPC: 2.00700 (Simulation time: 0 hr 0 min 43 sec) 
Heartbeat CPU  0 instructions:   31000002 cycles:   15449533 heartbeat IPC: 1.99265 cumulative IPC: 2.00653 (Simulation time: 0 hr 0 min 45 sec) 
Heartbeat CPU  0 instructions:   32000000 cycles:   15951034 heartbeat IPC: 1.99401 cumulative IPC: 2.00614 (Simulation time: 0 hr 0 min 46 sec) 
Heartbeat CPU  0 instructions:   33000001 cycles:   16453033 heartbeat IPC: 1.99204 cumulative IPC: 2.00571 (Simulation time: 0 hr 0 min 47 sec) 
Heartbeat CPU  0 instructions:   34000003 cycles:   16941447 heartbeat IPC: 2.04745 cumulative IPC: 2.00691 (Simulation time: 0 hr 0 min 49 sec) 
Heartbeat CPU  0 instructions:   35000000 cycles:   17440936 heartbeat IPC: 2.00204 cumulative IPC: 2.00677 (Simulation time: 0 hr 0 min 50 sec) 
Heartbeat CPU  0 instructions:   36000000 cycles:   17942436 heartbeat IPC: 1.99402 cumulative IPC: 2.00642 (Simulation time: 0 hr 0 min 52 sec) 
Heartbeat CPU  0 instructions:   37000003 cycles:   18444271 heartbeat IPC: 1.99269 cumulative IPC: 2.00604 (Simulation time: 0 hr 0 min 53 sec) 
Heartbeat CPU  0 instructions:   38000003 cycles:   18945026 heartbeat IPC: 1.99698 cumulative IPC: 2.00580 (Simulation time: 0 hr 0 min 54 sec) 
Heartbeat CPU  0 instructions:   39000003 cycles:   19432253 heartbeat IPC: 2.05243 cumulative IPC: 2.00697 (Simulation time: 0 hr 0 min 56 sec) 
Heartbeat CPU  0 instructions:   40000000 cycles:   19933495 heartbeat IPC: 1.99504 cumulative IPC: 2.00667 (Simulation time: 0 hr 0 min 57 sec) 
Heartbeat CPU  0 instructions:   41000001 cycles:   20435545 heartbeat IPC: 1.99184 cumulative IPC: 2.00631 (Simulation time: 0 hr 0 min 59 sec) 
Heartbeat CPU  0 instructions:   42000002 cycles:   20937562 heartbeat IPC: 1.99197 cumulative IPC: 2.00596 (Simulation time: 0 hr 1 min 0 sec) 
Heartbeat CPU  0 instructions:   43000003 cycles:   21429001 heartbeat IPC: 2.03484 cumulative IPC: 2.00663 (Simulation time: 0 hr 1 min 2 sec) 
Heartbeat CPU  0 instructions:   44000000 cycles:   21925841 heartbeat IPC: 2.01271 cumulative IPC: 2.00676 (Simulation time: 0 hr 1 min 3 sec) 
Heartbeat CPU  0 instructions:   45000001 cycles:   22427771 heartbeat IPC: 1.99231 cumulative IPC: 2.00644 (Simulation time: 0 hr 1 min 4 sec) 
Heartbeat CPU  0 instructions:   46000000 cycles:   22929362 heartbeat IPC: 1.99365 cumulative IPC: 2.00616 (Simulation time: 0 hr 1 min 6 sec) 
Heartbeat CPU  0 instructions:   47000002 cycles:   23431408 heartbeat IPC: 1.99185 cumulative IPC: 2.00585 (Simulation time: 0 hr 1 min 7 sec) 
Heartbeat CPU  0 instructions:   48000000 cycles:   23917943 heartbeat IPC: 2.05535 cumulative IPC: 2.00686 (Simulation time: 0 hr 1 min 9 sec) 
Heartbeat CPU  0 instructions:   49000002 cycles:   24419772 heartbeat IPC: 1.99271 cumulative IPC: 2.00657 (Simulation time: 0 hr 1 min 10 sec) 
Heartbeat CPU  0 instructions:   50000003 cycles:   24921111 heartbeat IPC: 1.99466 cumulative IPC: 2.00633 (Simulation time: 0 hr 1 min 12 sec) 
Heartbeat CPU  0 instructions:   51000003 cycles:   25422682 heartbeat IPC: 1.99374 cumulative IPC: 2.00608 (Simulation time: 0 hr 1 min 13 sec) 
Heartbeat CPU  0 instructions:   52000000 cycles:   25916241 heartbeat IPC: 2.02609 cumulative IPC: 2.00646 (Simulation time: 0 hr 1 min 15 sec) 
Heartbeat CPU  0 instructions:   53000001 cycles:   26411262 heartbeat IPC: 2.02012 cumulative IPC: 2.00672 (Simulation time: 0 hr 1 min 16 sec) 
Heartbeat CPU  0 instructions:   54000003 cycles:   26912926 heartbeat IPC: 1.99337 cumulative IPC: 2.00647 (Simulation time: 0 hr 1 min 17 sec) 
Heartbeat CPU  0 instructions:   55000003 cycles:   27414456 heartbeat IPC: 1.99390 cumulative IPC: 2.00624 (Simulation time: 0 hr 1 min 19 sec) 
Heartbeat CPU  0 instructions:   56000000 cycles:   27915872 heartbeat IPC: 1.99435 cumulative IPC: 2.00603 (Simulation time: 0 hr 1 min 20 sec) 
Heartbeat CPU  0 instructions:   57000002 cycles:   28402875 heartbeat IPC: 2.05338 cumulative IPC: 2.00684 (Simulation time: 0 hr 1 min 22 sec) 
Heartbeat CPU  0 instructions:   58000003 cycles:   28904560 heartbeat IPC: 1.99328 cumulative IPC: 2.00660 (Simulation time: 0 hr 1 min 23 sec) 
Heartbeat CPU  0 instructions:   59000001 cycles:   29406235 heartbeat IPC: 1.99332 cumulative IPC: 2.00638 (Simulation time: 0 hr 1 min 25 sec) 
Heartbeat CPU  0 instructions:   60000000 cycles:   29907298 heartbeat IPC: 1.99576 cumulative IPC: 2.00620 (Simulation time: 0 hr 1 min 26 sec) 
Heartbeat CPU  0 instructions:   61000000 cycles:   30403280 heartbeat IPC: 2.01620 cumulative IPC: 2.00636 (Simulation time: 0 hr 1 min 28 sec) 
Heartbeat CPU  0 instructions:   62000001 cycles:   30895731 heartbeat IPC: 2.03066 cumulative IPC: 2.00675 (Simulation time: 0 hr 1 min 29 sec) 
Heartbeat CPU  0 instructions:   63000001 cycles:   31397625 heartbeat IPC: 1.99245 cumulative IPC: 2.00652 (Simulation time: 0 hr 1 min 31 sec) 
Heartbeat CPU  0 instructions:   64000000 cycles:   31899831 heartbeat IPC: 1.99121 cumulative IPC: 2.00628 (Simulation time: 0 hr 1 min 32 sec) 
Heartbeat CPU  0 instructions:   65000000 cycles:   32401430 heartbeat IPC: 1.99362 cumulative IPC: 2.00608 (Simulation time: 0 hr 1 min 34 sec) 
Heartbeat CPU  0 instructions:   66000003 cycles:   32887651 heartbeat IPC: 2.05668 cumulative IPC: 2.00683 (Simulation time: 0 hr 1 min 35 sec) 
Heartbeat CPU  0 instructions:   67000000 cycles:   33389754 heartbeat IPC: 1.99162 cumulative IPC: 2.00660 (Simulation time: 0 hr 1 min 36 sec) 
Heartbeat CPU  0 instructions:   68000000 cycles:   33891676 heartbeat IPC: 1.99234 cumulative IPC: 2.00639 (Simulation time: 0 hr 1 min 38 sec) 
Heartbeat CPU  0 instructions:   69000001 cycles:   34393863 heartbeat IPC: 1.99129 cumulative IPC: 2.00617 (Simulation time: 0 hr 1 min 39 sec) 
Heartbeat CPU  0 instructions:   70000000 cycles:   34890993 heartbeat IPC: 2.01154 cumulative IPC: 2.00625 (Simulation time: 0 hr 1 min 40 sec) 
Heartbeat CPU  0 instructions:   71000001 cycles:   35381391 heartbeat IPC: 2.03916 cumulative IPC: 2.00670 (Simulation time: 0 hr 1 min 42 sec) 
Heartbeat CPU  0 instructions:   72000000 cycles:   35883603 heartbeat IPC: 1.99119 cumulative IPC: 2.00649 (Simulation time: 0 hr 1 min 43 sec) 
Heartbeat CPU  0 instructions:   73000002 cycles:   36384955 heartbeat IPC: 1.99461 cumulative IPC: 2.00632 (Simulation time: 0 hr 1 min 45 sec) 
Heartbeat CPU  0 instructions:   74000003 cycles:   36886816 heartbeat IPC: 1.99259 cumulative IPC: 2.00614 (Simulation time: 0 hr 1 min 46 sec) 
Heartbeat CPU  0 instructions:   75000001 cycles:   37375351 heartbeat IPC: 2.04693 cumulative IPC: 2.00667 (Simulation time: 0 hr 1 min 47 sec) 
Heartbeat CPU  0 instructions:   76000000 cycles:   37874779 heartbeat IPC: 2.00229 cumulative IPC: 2.00661 (Simulation time: 0 hr 1 min 49 sec) 
Heartbeat CPU  0 instructions:   77000000 cycles:   38376758 heartbeat IPC: 1.99212 cumulative IPC: 2.00642 (Simulation time: 0 hr 1 min 50 sec) 
Heartbeat CPU  0 instructions:   78000003 cycles:   38878392 heartbeat IPC: 1.99349 cumulative IPC: 2.00626 (Simulation time: 0 hr 1 min 51 sec) 
Heartbeat CPU  0 instructions:   79000001 cycles:   39378760 heartbeat IPC: 1.99853 cumulative IPC: 2.00616 (Simulation time: 0 hr 1 min 53 sec) 
Heartbeat CPU  0 instructions:   80000000 cycles:   39867286 heartbeat IPC: 2.04697 cumulative IPC: 2.00666 (Simulation time: 0 hr 1 min 54 sec) 
Heartbeat CPU  0 instructions:   81000003 cycles:   40368244 heartbeat IPC: 1.99618 cumulative IPC: 2.00653 (Simulation time: 0 hr 1 min 56 sec) 
Heartbeat CPU  0 instructions:   82000003 cycles:   40869904 heartbeat IPC: 1.99338 cumulative IPC: 2.00637 (Simulation time: 0 hr 1 min 57 sec) 
Heartbeat CPU  0 instructions:   83000001 cycles:   41371838 heartbeat IPC: 1.99229 cumulative IPC: 2.00620 (Simulation time: 0 hr 1 min 58 sec) 
Heartbeat CPU  0 instructions:   84000000 cycles:   41863060 heartbeat IPC: 2.03574 cumulative IPC: 2.00654 (Simulation time: 0 hr 2 min 0 sec) 
Heartbeat CPU  0 instructions:   85000002 cycles:   42360550 heartbeat IPC: 2.01009 cumulative IPC: 2.00658 (Simulation time: 0 hr 2 min 1 sec) 
Heartbeat CPU  0 instructions:   86000002 cycles:   42862412 heartbeat IPC: 1.99258 cumulative IPC: 2.00642 (Simulation time: 0 hr 2 min 3 sec) 
Heartbeat CPU  0 instructions:   87000002 cycles:   43364151 heartbeat IPC: 1.99307 cumulative IPC: 2.00627 (Simulation time: 0 hr 2 min 4 sec) 
Heartbeat CPU  0 instructions:   88000000 cycles:   43866181 heartbeat IPC: 1.99191 cumulative IPC: 2.00610 (Simulation time: 0 hr 2 min 6 sec) 
Heartbeat CPU  0 instructions:   89000003 cycles:   44352878 heartbeat IPC: 2.05467 cumulative IPC: 2.00663 (Simulation time: 0 hr 2 min 7 sec) 
Heartbeat CPU  0 instructions:   90000002 cycles:   44855079 heartbeat IPC: 1.99123 cumulative IPC: 2.00646 (Simulation time: 0 hr 2 min 8 sec) 
Heartbeat CPU  0 instructions:   91000000 cycles:   45356549 heartbeat IPC: 1.99413 cumulative IPC: 2.00633 (Simulation time: 0 hr 2 min 9 sec) 
Heartbeat CPU  0 instructions:   92000000 cycles:   45858335 heartbeat IPC: 1.99288 cumulative IPC: 2.00618 (Simulation time: 0 hr 2 min 11 sec) 
Heartbeat CPU  0 instructions:   93000002 cycles:   46351335 heartbeat IPC: 2.02840 cumulative IPC: 2.00641 (Simulation time: 0 hr 2 min 12 sec) 
Heartbeat CPU  0 instructions:   94000003 cycles:   46847131 heartbeat IPC: 2.01696 cumulative IPC: 2.00653 (Simulation time: 0 hr 2 min 14 sec) 
Heartbeat CPU  0 instructions:   95000003 cycles:   47348779 heartbeat IPC: 1.99343 cumulative IPC: 2.00639 (Simulation time: 0 hr 2 min 15 sec) 
Heartbeat CPU  0 instructions:   96000000 cycles:   47850520 heartbeat IPC: 1.99305 cumulative IPC: 2.00625 (Simulation time: 0 hr 2 min 16 sec) 
Heartbeat CPU  0 instructions:   97000000 cycles:   48351970 heartbeat IPC: 1.99422 cumulative IPC: 2.00612 (Simulation time: 0 hr 2 min 18 sec) 
Heartbeat CPU  0 instructions:   98000000 cycles:   48838690 heartbeat IPC: 2.05457 cumulative IPC: 2.00661 (Simulation time: 0 hr 2 min 19 sec) 
Heartbeat CPU  0 instructions:   99000002 cycles:   49340577 heartbeat IPC: 1.99248 cumulative IPC: 2.00646 (Simulation time: 0 hr 2 min 21 sec) 
Heartbeat CPU  0 instructions:  100000000 cycles:   49842265 heartbeat IPC: 1.99327 cumulative IPC: 2.00633 (Simulation time: 0 hr 2 min 22 sec) 

Warmup complete CPU  0 instructions:  100000003 cycles:   49842266 (Simulation time: 0 hr 2 min 22 sec) 

Heartbeat CPU  0 instructions:  101000001 cycles:   50744202 heartbeat IPC: 1.10873 cumulative IPC: 1.10872 (Simulation time: 0 hr 2 min 23 sec) 
Heartbeat CPU  0 instructions:  102000002 cycles:   51639332 heartbeat IPC: 1.11716 cumulative IPC: 1.11292 (Simulation time: 0 hr 2 min 25 sec) 
Heartbeat CPU  0 instructions:  103000002 cycles:   52544371 heartbeat IPC: 1.10492 cumulative IPC: 1.11025 (Simulation time: 0 hr 2 min 27 sec) 
Heartbeat CPU  0 instructions:  104000000 cycles:   53456110 heartbeat IPC: 1.09680 cumulative IPC: 1.10685 (Simulation time: 0 hr 2 min 28 sec) 
Heartbeat CPU  0 instructions:  105000000 cycles:   54338262 heartbeat IPC: 1.13359 cumulative IPC: 1.11210 (Simulation time: 0 hr 2 min 30 sec) 
Heartbeat CPU  0 instructions:  106000001 cycles:   55234176 heartbeat IPC: 1.11618 cumulative IPC: 1.11278 (Simulation time: 0 hr 2 min 31 sec) 
Heartbeat CPU  0 instructions:  107000002 cycles:   56129566 heartbeat IPC: 1.11683 cumulative IPC: 1.11336 (Simulation time: 0 hr 2 min 33 sec) 
Heartbeat CPU  0 instructions:  108000000 cycles:   57032932 heartbeat IPC: 1.10697 cumulative IPC: 1.11255 (Simulation time: 0 hr 2 min 35 sec) 
Heartbeat CPU  0 instructions:  109000003 cycles:   57946432 heartbeat IPC: 1.09469 cumulative IPC: 1.11054 (Simulation time: 0 hr 2 min 36 sec) 
Heartbeat CPU  0 instructions:  110000001 cycles:   58839212 heartbeat IPC: 1.12009 cumulative IPC: 1.11149 (Simulation time: 0 hr 2 min 38 sec) 
Heartbeat CPU  0 instructions:  111000003 cycles:   59725694 heartbeat IPC: 1.12806 cumulative IPC: 1.11297 (Simulation time: 0 hr 2 min 39 sec) 
Heartbeat CPU  0 instructions:  112000000 cycles:   60626938 heartbeat IPC: 1.10957 cumulative IPC: 1.11269 (Simulation time: 0 hr 2 min 41 sec) 
Heartbeat CPU  0 instructions:  113000001 cycles:   61528208 heartbeat IPC: 1.10955 cumulative IPC: 1.11245 (Simulation time: 0 hr 2 min 43 sec) 
Heartbeat CPU  0 instructions:  114000002 cycles:   62441011 heartbeat IPC: 1.09553 cumulative IPC: 1.11122 (Simulation time: 0 hr 2 min 44 sec) 
Heartbeat CPU  0 instructions:  115000000 cycles:   63346889 heartbeat IPC: 1.10390 cumulative IPC: 1.11073 (Simulation time: 0 hr 2 min 46 sec) 
Heartbeat CPU  0 instructions:  116000000 cycles:   64232148 heartbeat IPC: 1.12961 cumulative IPC: 1.11189 (Simulation time: 0 hr 2 min 48 sec) 
Heartbeat CPU  0 instructions:  117000002 cycles:   65138240 heartbeat IPC: 1.10364 cumulative IPC: 1.11140 (Simulation time: 0 hr 2 min 49 sec) 
Heartbeat CPU  0 instructions:  118000001 cycles:   66039766 heartbeat IPC: 1.10923 cumulative IPC: 1.11128 (Simulation time: 0 hr 2 min 51 sec) 
Heartbeat CPU  0 instructions:  119000002 cycles:   66953317 heartbeat IPC: 1.09463 cumulative IPC: 1.11039 (Simulation time: 0 hr 2 min 52 sec) 
Heartbeat CPU  0 instructions:  120000000 cycles:   67855118 heartbeat IPC: 1.10889 cumulative IPC: 1.11032 (Simulation time: 0 hr 2 min 54 sec) 
Heartbeat CPU  0 instructions:  121000001 cycles:   68745561 heartbeat IPC: 1.12304 cumulative IPC: 1.11092 (Simulation time: 0 hr 2 min 56 sec) 
Heartbeat CPU  0 instructions:  122000002 cycles:   69642312 heartbeat IPC: 1.11514 cumulative IPC: 1.11111 (Simulation time: 0 hr 2 min 57 sec) 
Heartbeat CPU  0 instructions:  123000001 cycles:   70541092 heartbeat IPC: 1.11262 cumulative IPC: 1.11117 (Simulation time: 0 hr 2 min 59 sec) 
Heartbeat CPU  0 instructions:  124000000 cycles:   71451508 heartbeat IPC: 1.09840 cumulative IPC: 1.11064 (Simulation time: 0 hr 3 min 0 sec) 
Heartbeat CPU  0 instructions:  125000000 cycles:   72356518 heartbeat IPC: 1.10496 cumulative IPC: 1.11041 (Simulation time: 0 hr 3 min 2 sec) 
Heartbeat CPU  0 instructions:  126000000 cycles:   73242133 heartbeat IPC: 1.12916 cumulative IPC: 1.11112 (Simulation time: 0 hr 3 min 4 sec) 
Heartbeat CPU  0 instructions:  127000000 cycles:   74136511 heartbeat IPC: 1.11810 cumulative IPC: 1.11137 (Simulation time: 0 hr 3 min 5 sec) 
Heartbeat CPU  0 instructions:  128000000 cycles:   75034798 heartbeat IPC: 1.11323 cumulative IPC: 1.11144 (Simulation time: 0 hr 3 min 7 sec) 
Heartbeat CPU  0 instructions:  129000002 cycles:   75942170 heartbeat IPC: 1.10209 cumulative IPC: 1.11112 (Simulation time: 0 hr 3 min 8 sec) 
Heartbeat CPU  0 instructions:  130000002 cycles:   76849252 heartbeat IPC: 1.10244 cumulative IPC: 1.11082 (Simulation time: 0 hr 3 min 10 sec) 
Heartbeat CPU  0 instructions:  131000002 cycles:   77740661 heartbeat IPC: 1.12182 cumulative IPC: 1.11117 (Simulation time: 0 hr 3 min 12 sec) 
Heartbeat CPU  0 instructions:  132000000 cycles:   78630781 heartbeat IPC: 1.12344 cumulative IPC: 1.11155 (Simulation time: 0 hr 3 min 13 sec) 
Heartbeat CPU  0 instructions:  133000000 cycles:   79529117 heartbeat IPC: 1.11317 cumulative IPC: 1.11160 (Simulation time: 0 hr 3 min 15 sec) 
Heartbeat CPU  0 instructions:  134000000 cycles:   80427925 heartbeat IPC: 1.11258 cumulative IPC: 1.11163 (Simulation time: 0 hr 3 min 16 sec) 
Heartbeat CPU  0 instructions:  135000002 cycles:   81341879 heartbeat IPC: 1.09415 cumulative IPC: 1.11112 (Simulation time: 0 hr 3 min 18 sec) 
Heartbeat CPU  0 instructions:  136000000 cycles:   82236039 heartbeat IPC: 1.11837 cumulative IPC: 1.11132 (Simulation time: 0 hr 3 min 20 sec) 
Heartbeat CPU  0 instructions:  137000001 cycles:   83125609 heartbeat IPC: 1.12414 cumulative IPC: 1.11167 (Simulation time: 0 hr 3 min 21 sec) 
Heartbeat CPU  0 instructions:  138000003 cycles:   84022940 heartbeat IPC: 1.11442 cumulative IPC: 1.11174 (Simulation time: 0 hr 3 min 23 sec) 
Heartbeat CPU  0 instructions:  139000003 cycles:   84917637 heartbeat IPC: 1.11770 cumulative IPC: 1.11189 (Simulation time: 0 hr 3 min 24 sec) 
Heartbeat CPU  0 instructions:  140000000 cycles:   85832002 heartbeat IPC: 1.09365 cumulative IPC: 1.11143 (Simulation time: 0 hr 3 min 26 sec) 
Heartbeat CPU  0 instructions:  141000003 cycles:   86727275 heartbeat IPC: 1.11698 cumulative IPC: 1.11156 (Simulation time: 0 hr 3 min 28 sec) 
Heartbeat CPU  0 instructions:  142000000 cycles:   87612946 heartbeat IPC: 1.12908 cumulative IPC: 1.11197 (Simulation time: 0 hr 3 min 29 sec) 
Heartbeat CPU  0 instructions:  143000000 cycles:   88499338 heartbeat IPC: 1.12817 cumulative IPC: 1.11234 (Simulation time: 0 hr 3 min 31 sec) 
Heartbeat CPU  0 instructions:  144000000 cycles:   89397839 heartbeat IPC: 1.11296 cumulative IPC: 1.11236 (Simulation time: 0 hr 3 min 32 sec) 
Heartbeat CPU  0 instructions:  145000002 cycles:   90307481 heartbeat IPC: 1.09934 cumulative IPC: 1.11207 (Simulation time: 0 hr 3 min 34 sec) 
Heartbeat CPU  0 instructions:  146000002 cycles:   91209894 heartbeat IPC: 1.10814 cumulative IPC: 1.11198 (Simulation time: 0 hr 3 min 36 sec) 
Heartbeat CPU  0 instructions:  147000002 cycles:   92176804 heartbeat IPC: 1.03422 cumulative IPC: 1.11020 (Simulation time: 0 hr 3 min 37 sec) 
Heartbeat CPU  0 instructions:  148000000 cycles:   93612533 heartbeat IPC: 0.69651 cumulative IPC: 1.09663 (Simulation time: 0 hr 3 min 39 sec) 
Heartbeat CPU  0 instructions:  149000002 cycles:   95054345 heartbeat IPC: 0.69357 cumulative IPC: 1.08378 (Simulation time: 0 hr 3 min 41 sec) 
Heartbeat CPU  0 instructions:  150000002 cycles:   96496832 heartbeat IPC: 0.69325 cumulative IPC: 1.07171 (Simulation time: 0 hr 3 min 43 sec) 
Heartbeat CPU  0 instructions:  151000000 cycles:   97937743 heartbeat IPC: 0.69400 cumulative IPC: 1.06039 (Simulation time: 0 hr 3 min 45 sec) 
Heartbeat CPU  0 instructions:  152000000 cycles:   99368731 heartbeat IPC: 0.69882 cumulative IPC: 1.04994 (Simulation time: 0 hr 3 min 47 sec) 
Heartbeat CPU  0 instructions:  153000003 cycles:  100803724 heartbeat IPC: 0.69687 cumulative IPC: 1.04000 (Simulation time: 0 hr 3 min 49 sec) 
Heartbeat CPU  0 instructions:  154000002 cycles:  102235652 heartbeat IPC: 0.69836 cumulative IPC: 1.03066 (Simulation time: 0 hr 3 min 51 sec) 
Heartbeat CPU  0 instructions:  155000003 cycles:  103669252 heartbeat IPC: 0.69755 cumulative IPC: 1.02179 (Simulation time: 0 hr 3 min 52 sec) 
Heartbeat CPU  0 instructions:  156000000 cycles:  105107493 heartbeat IPC: 0.69529 cumulative IPC: 1.01330 (Simulation time: 0 hr 3 min 54 sec) 
Heartbeat CPU  0 instructions:  157000003 cycles:  106545239 heartbeat IPC: 0.69554 cumulative IPC: 1.00524 (Simulation time: 0 hr 3 min 56 sec) 
Heartbeat CPU  0 instructions:  158000003 cycles:  107979240 heartbeat IPC: 0.69735 cumulative IPC: 0.99764 (Simulation time: 0 hr 3 min 58 sec) 
Heartbeat CPU  0 instructions:  159000003 cycles:  109413726 heartbeat IPC: 0.69711 cumulative IPC: 0.99041 (Simulation time: 0 hr 4 min 0 sec) 
Heartbeat CPU  0 instructions:  160000000 cycles:  110859705 heartbeat IPC: 0.69157 cumulative IPC: 0.98333 (Simulation time: 0 hr 4 min 2 sec) 
Heartbeat CPU  0 instructions:  161000000 cycles:  112289553 heartbeat IPC: 0.69938 cumulative IPC: 0.97682 (Simulation time: 0 hr 4 min 4 sec) 
Heartbeat CPU  0 instructions:  162000000 cycles:  113732951 heartbeat IPC: 0.69281 cumulative IPC: 0.97041 (Simulation time: 0 hr 4 min 6 sec) 
Heartbeat CPU  0 instructions:  163000002 cycles:  115173140 heartbeat IPC: 0.69435 cumulative IPC: 0.96432 (Simulation time: 0 hr 4 min 8 sec) 
Heartbeat CPU  0 instructions:  164000000 cycles:  116619983 heartbeat IPC: 0.69116 cumulative IPC: 0.95840 (Simulation time: 0 hr 4 min 10 sec) 
Heartbeat CPU  0 instructions:  165000001 cycles:  118074575 heartbeat IPC: 0.68748 cumulative IPC: 0.95263 (Simulation time: 0 hr 4 min 11 sec) 
Heartbeat CPU  0 instructions:  166000001 cycles:  119530614 heartbeat IPC: 0.68679 cumulative IPC: 0.94707 (Simulation time: 0 hr 4 min 13 sec) 
Heartbeat CPU  0 instructions:  167000001 cycles:  120965478 heartbeat IPC: 0.69693 cumulative IPC: 0.94203 (Simulation time: 0 hr 4 min 15 sec) 
Heartbeat CPU  0 instructions:  168000000 cycles:  122406863 heartbeat IPC: 0.69378 cumulative IPC: 0.93710 (Simulation time: 0 hr 4 min 16 sec) 
Heartbeat CPU  0 instructions:  169000002 cycles:  123849534 heartbeat IPC: 0.69316 cumulative IPC: 0.93234 (Simulation time: 0 hr 4 min 18 sec) 
Heartbeat CPU  0 instructions:  170000002 cycles:  125272361 heartbeat IPC: 0.70283 cumulative IPC: 0.92801 (Simulation time: 0 hr 4 min 20 sec) 
Heartbeat CPU  0 instructions:  171000002 cycles:  126705873 heartbeat IPC: 0.69759 cumulative IPC: 0.92371 (Simulation time: 0 hr 4 min 21 sec) 
Heartbeat CPU  0 instructions:  172000000 cycles:  128137785 heartbeat IPC: 0.69837 cumulative IPC: 0.91959 (Simulation time: 0 hr 4 min 23 sec) 
Heartbeat CPU  0 instructions:  173000002 cycles:  129565088 heartbeat IPC: 0.70062 cumulative IPC: 0.91567 (Simulation time: 0 hr 4 min 25 sec) 
Heartbeat CPU  0 instructions:  174000002 cycles:  131014921 heartbeat IPC: 0.68973 cumulative IPC: 0.91164 (Simulation time: 0 hr 4 min 26 sec) 
Heartbeat CPU  0 instructions:  175000002 cycles:  132453800 heartbeat IPC: 0.69499 cumulative IPC: 0.90786 (Simulation time: 0 hr 4 min 28 sec) 
Heartbeat CPU  0 instructions:  176000000 cycles:  133889203 heartbeat IPC: 0.69667 cumulative IPC: 0.90426 (Simulation time: 0 hr 4 min 30 sec) 
Heartbeat CPU  0 instructions:  177000003 cycles:  135331581 heartbeat IPC: 0.69330 cumulative IPC: 0.90070 (Simulation time: 0 hr 4 min 31 sec) 
Heartbeat CPU  0 instructions:  178000000 cycles:  136781891 heartbeat IPC: 0.68951 cumulative IPC: 0.89717 (Simulation time: 0 hr 4 min 33 sec) 
Heartbeat CPU  0 instructions:  179000002 cycles:  138221887 heartbeat IPC: 0.69445 cumulative IPC: 0.89387 (Simulation time: 0 hr 4 min 35 sec) 
Heartbeat CPU  0 instructions:  180000000 cycles:  139656335 heartbeat IPC: 0.69713 cumulative IPC: 0.89073 (Simulation time: 0 hr 4 min 36 sec) 
Heartbeat CPU  0 instructions:  181000003 cycles:  141100360 heartbeat IPC: 0.69251 cumulative IPC: 0.88759 (Simulation time: 0 hr 4 min 38 sec) 
Heartbeat CPU  0 instructions:  182000002 cycles:  142535119 heartbeat IPC: 0.69698 cumulative IPC: 0.88464 (Simulation time: 0 hr 4 min 39 sec) 
Heartbeat CPU  0 instructions:  183000000 cycles:  143974444 heartbeat IPC: 0.69477 cumulative IPC: 0.88174 (Simulation time: 0 hr 4 min 41 sec) 
Heartbeat CPU  0 instructions:  184000000 cycles:  145421258 heartbeat IPC: 0.69117 cumulative IPC: 0.87885 (Simulation time: 0 hr 4 min 43 sec) 
Heartbeat CPU  0 instructions:  185000003 cycles:  146861456 heartbeat IPC: 0.69435 cumulative IPC: 0.87612 (Simulation time: 0 hr 4 min 44 sec) 
Heartbeat CPU  0 instructions:  186000001 cycles:  148291224 heartbeat IPC: 0.69941 cumulative IPC: 0.87355 (Simulation time: 0 hr 4 min 46 sec) 
Heartbeat CPU  0 instructions:  187000002 cycles:  149730340 heartbeat IPC: 0.69487 cumulative IPC: 0.87097 (Simulation time: 0 hr 4 min 48 sec) 
Heartbeat CPU  0 instructions:  188000000 cycles:  151169299 heartbeat IPC: 0.69495 cumulative IPC: 0.86848 (Simulation time: 0 hr 4 min 49 sec) 
Heartbeat CPU  0 instructions:  189000001 cycles:  152607518 heartbeat IPC: 0.69531 cumulative IPC: 0.86605 (Simulation time: 0 hr 4 min 51 sec) 
Heartbeat CPU  0 instructions:  190000003 cycles:  154050924 heartbeat IPC: 0.69281 cumulative IPC: 0.86365 (Simulation time: 0 hr 4 min 53 sec) 
Heartbeat CPU  0 instructions:  191000002 cycles:  155507666 heartbeat IPC: 0.68646 cumulative IPC: 0.86121 (Simulation time: 0 hr 4 min 54 sec) 
Heartbeat CPU  0 instructions:  192000000 cycles:  156927141 heartbeat IPC: 0.70448 cumulative IPC: 0.85913 (Simulation time: 0 hr 4 min 56 sec) 
Heartbeat CPU  0 instructions:  193000003 cycles:  158051292 heartbeat IPC: 0.88956 cumulative IPC: 0.85945 (Simulation time: 0 hr 4 min 57 sec) 
Heartbeat CPU  0 instructions:  194000001 cycles:  161789879 heartbeat IPC: 0.26748 cumulative IPC: 0.83968 (Simulation time: 0 hr 5 min 0 sec) 
Heartbeat CPU  0 instructions:  195000000 cycles:  165205255 heartbeat IPC: 0.29279 cumulative IPC: 0.82349 (Simulation time: 0 hr 5 min 3 sec) 
Heartbeat CPU  0 instructions:  196000000 cycles:  165929658 heartbeat IPC: 1.38045 cumulative IPC: 0.82696 (Simulation time: 0 hr 5 min 4 sec) 
Heartbeat CPU  0 instructions:  197000000 cycles:  166653375 heartbeat IPC: 1.38176 cumulative IPC: 0.83040 (Simulation time: 0 hr 5 min 5 sec) 
Heartbeat CPU  0 instructions:  198000003 cycles:  167381098 heartbeat IPC: 1.37415 cumulative IPC: 0.83377 (Simulation time: 0 hr 5 min 7 sec) 
Heartbeat CPU  0 instructions:  199000002 cycles:  168126392 heartbeat IPC: 1.34175 cumulative IPC: 0.83697 (Simulation time: 0 hr 5 min 8 sec) 
Heartbeat CPU  0 instructions:  200000000 cycles:  168851407 heartbeat IPC: 1.37928 cumulative IPC: 0.84027 (Simulation time: 0 hr 5 min 10 sec) 
Finished CPU 0 instructions: 100000000 cycles: 119009170 cumulative IPC: 0.84027 (Simulation time: 0 hr 5 min 10 sec) 

ChampSim completed all CPUs

[ROI Statistics]
Core_0_instructions 100000000
Core_0_cycles 119009170
Core_0_IPC 0.84027

Core_0_branch_prediction_accuracy 99.15344
Core_0_branch_MPKI 0.35029
Core_0_average_ROB_occupancy_at_mispredict 249.77256

Core_0_L1D_total_access 27359506
Core_0_L1D_total_hit 25917641
Core_0_L1D_total_miss 1441865
Core_0_L1D_loads 22892765
Core_0_L1D_load_hit 21787894
Core_0_L1D_load_miss 1104871
Core_0_L1D_RFOs 4466741
Core_0_L1D_RFO_hit 4129747
Core_0_L1D_RFO_miss 336994
Core_0_L1D_prefetches 0
Core_0_L1D_prefetch_hit 0
Core_0_L1D_prefetch_miss 0
Core_0_L1D_writebacks 0
Core_0_L1D_writeback_hit 0
Core_0_L1D_writeback_miss 0
Core_0_L1D_prefetch_requested 0
Core_0_L1D_prefetch_issued 0
Core_0_L1D_prefetch_useful 0
Core_0_L1D_prefetch_useless 0
Core_0_L1D_prefetch_late 0
Core_0_L1D_average_miss_latency 83.50283

Core_0_L1I_total_access 22788077
Core_0_L1I_total_hit 22787857
Core_0_L1I_total_miss 220
Core_0_L1I_loads 22788077
Core_0_L1I_load_hit 22787857
Core_0_L1I_load_miss 220
Core_0_L1I_RFOs 0
Core_0_L1I_RFO_hit 0
Core_0_L1I_RFO_miss 0
Core_0_L1I_prefetches 0
Core_0_L1I_prefetch_hit 0
Core_0_L1I_prefetch_miss 0
Core_0_L1I_writebacks 0
Core_0_L1I_writeback_hit 0
Core_0_L1I_writeback_miss 0
Core_0_L1I_prefetch_requested 0
Core_0_L1I_prefetch_issued 0
Core_0_L1I_prefetch_useful 0
Core_0_L1I_prefetch_useless 0
Core_0_L1I_prefetch_late 0
Core_0_L1I_average_miss_latency 219.20909

Core_0_L2C_total_access 2824592
Core_0_L2C_total_hit 1780887
Core_0_L2C_total_miss 1043705
Core_0_L2C_loads 1105086
Core_0_L2C_load_hit 784577
Core_0_L2C_load_miss 320509
Core_0_L2C_RFOs 336939
Core_0_L2C_RFO_hit 134204
Core_0_L2C_RFO_miss 202735
Core_0_L2C_prefetches 829435
Core_0_L2C_prefetch_hit 309142
Core_0_L2C_prefetch_miss 520293
Core_0_L2C_writebacks 553132
Core_0_L2C_writeback_hit 552964
Core_0_L2C_writeback_miss 168
Core_0_L2C_prefetch_requested 2362080
Core_0_L2C_prefetch_issued 2325547
Core_0_L2C_prefetch_useful 965983
Core_0_L2C_prefetch_useless 50286
Core_0_L2C_prefetch_late 249466
Core_0_L2C_average_miss_latency 210.39408

Core_0_LLC_total_access 1453917
Core_0_LLC_total_hit 501085
Core_0_LLC_total_miss 952832
Core_0_LLC_loads 71075
Core_0_LLC_load_hit 17076
Core_0_LLC_load_miss 53999
Core_0_LLC_RFOs 202735
Core_0_LLC_RFO_hit 13165
Core_0_LLC_RFO_miss 189570
Core_0_LLC_prefetches 769727
Core_0_LLC_prefetch_hit 66769
Core_0_LLC_prefetch_miss 702958
Core_0_LLC_writebacks 410380
Core_0_LLC_writeback_hit 404075
Core_0_LLC_writeback_miss 6305
Core_0_LLC_prefetch_requested 0
Core_0_LLC_prefetch_issued 0
Core_0_LLC_prefetch_useful 34836
Core_0_LLC_prefetch_useless 1010085
Core_0_LLC_prefetch_late 0
Core_0_LLC_average_miss_latency 228.79889

Core_0_major_page_fault 0
Core_0_minor_page_fault 15627

CPU 0 L2C next line prefetcher final stats
Channel_0_RQ_row_buffer_hit 313049
Channel_0_RQ_row_buffer_miss 633461
Channel_0_WQ_row_buffer_hit 74461
Channel_0_WQ_row_buffer_miss 305022
Channel_0_WQ_full 0
Channel_0_dbus_congested 307038

avg_congested_cycle 9
