*************************************************
   ChampSim Multicore Out-of-Order Simulator
   Last compiled: Dec 23 2023 17:12:12
*************************************************

trace_0 ./test_trace/437.leslie3d-134B.champsimtrace.xz
Initialize SHIP state
warmup_instructions 100000000
simulation_instructions 100000000
champsim_seed 218

num_cpus 1
cpu_freq 4000
dram_io_freq 2400
page_size 4096
block_size 64
max_read_per_cycle 8
max_fill_per_cycle 1
dram_channels 1
dram_ranks 1
dram_banks 8
dram_rows 65536
dram_columns 128
dram_row_size 8
dram_size 4096
dram_pages 1048576

fetch_width 6
decode_width 6
exec_width 4
lq_width 2
sq_width 2
retire_width 4
scheduler_size 128
branch_mispredict_penalty 20
rob_size 256
lq_size 72
sq_size 56
num_instr_destinations_sparc 4
num_instr_destinations 2
num_instr_sources 4

itlb_set 16
itlb_way 8
itlb_rq_size 16
itlb_wq_size 16
itlb_pq_size 0
itlb_mshr_size 8
itlb_latency 1

dtlb_set 16
dtlb_way 4
dtlb_rq_size 16
dtlb_wq_size 16
dtlb_pq_size 0
dtlb_mshr_size 8
dtlb_latency 1

stlb_set 128
stlb_way 12
stlb_rq_size 32
stlb_wq_size 32
stlb_pq_size 0
stlb_mshr_size 16
stlb_latency 8

l1i_size 32
l1i_set 64
l1i_way 8
l1i_rq_size 64
l1i_wq_size 64
l1i_pq_size 8
l1i_mshr_size 8
l1i_latency 1

l1d_size 32
l1d_set 64
l1d_way 8
l1d_rq_size 64
l1d_wq_size 64
l1d_pq_size 8
l1d_mshr_size 16
l1d_latency 4

l2c_size 512
l2c_set 1024
l2c_way 8
l2c_rq_size 32
l2c_wq_size 32
l2c_pq_size 16
l2c_mshr_size 32
l2c_latency 10

llc_size 2048
llc_set 2048
llc_way 16
llc_rq_size 32
llc_wq_size 32
llc_pq_size 32
llc_mshr_size 64
llc_latency 20

dram_channel_width 8
dram_wq_size 64
dram_rq_size 64
tRP 15
tRCD 15
tCAS 12.5
dram_dbus_turn_around_time 30
dram_write_high_wm 56
dram_write_low_wm 48
min_dram_writes_per_switch 16
dram_mtps 2400
dram_dbus_return_time 13


Heartbeat CPU  0 instructions:    1000002 cycles:     501834 heartbeat IPC: 1.99269 cumulative IPC: 1.99269 (Simulation time: 0 hr 0 min 2 sec) 
Heartbeat CPU  0 instructions:    2000001 cycles:     993266 heartbeat IPC: 2.03487 cumulative IPC: 2.01356 (Simulation time: 0 hr 0 min 3 sec) 
Heartbeat CPU  0 instructions:    3000001 cycles:    1490066 heartbeat IPC: 2.01288 cumulative IPC: 2.01333 (Simulation time: 0 hr 0 min 4 sec) 
Heartbeat CPU  0 instructions:    4000000 cycles:    1991546 heartbeat IPC: 1.99410 cumulative IPC: 2.00849 (Simulation time: 0 hr 0 min 5 sec) 
Heartbeat CPU  0 instructions:    5000000 cycles:    2493251 heartbeat IPC: 1.99320 cumulative IPC: 2.00541 (Simulation time: 0 hr 0 min 7 sec) 
Heartbeat CPU  0 instructions:    6000001 cycles:    2994690 heartbeat IPC: 1.99426 cumulative IPC: 2.00355 (Simulation time: 0 hr 0 min 8 sec) 
Heartbeat CPU  0 instructions:    7000000 cycles:    3481486 heartbeat IPC: 2.05425 cumulative IPC: 2.01064 (Simulation time: 0 hr 0 min 9 sec) 
Heartbeat CPU  0 instructions:    8000000 cycles:    3983102 heartbeat IPC: 1.99356 cumulative IPC: 2.00848 (Simulation time: 0 hr 0 min 10 sec) 
Heartbeat CPU  0 instructions:    9000001 cycles:    4483977 heartbeat IPC: 1.99651 cumulative IPC: 2.00715 (Simulation time: 0 hr 0 min 12 sec) 
Heartbeat CPU  0 instructions:   10000000 cycles:    4985599 heartbeat IPC: 1.99353 cumulative IPC: 2.00578 (Simulation time: 0 hr 0 min 13 sec) 
Heartbeat CPU  0 instructions:   11000001 cycles:    5479379 heartbeat IPC: 2.02520 cumulative IPC: 2.00753 (Simulation time: 0 hr 0 min 14 sec) 
Heartbeat CPU  0 instructions:   12000000 cycles:    5974058 heartbeat IPC: 2.02151 cumulative IPC: 2.00868 (Simulation time: 0 hr 0 min 15 sec) 
Heartbeat CPU  0 instructions:   13000003 cycles:    6475513 heartbeat IPC: 1.99420 cumulative IPC: 2.00756 (Simulation time: 0 hr 0 min 17 sec) 
Heartbeat CPU  0 instructions:   14000001 cycles:    6976789 heartbeat IPC: 1.99490 cumulative IPC: 2.00665 (Simulation time: 0 hr 0 min 18 sec) 
Heartbeat CPU  0 instructions:   15000003 cycles:    7478199 heartbeat IPC: 1.99438 cumulative IPC: 2.00583 (Simulation time: 0 hr 0 min 19 sec) 
Heartbeat CPU  0 instructions:   16000000 cycles:    7965364 heartbeat IPC: 2.05269 cumulative IPC: 2.00870 (Simulation time: 0 hr 0 min 20 sec) 
Heartbeat CPU  0 instructions:   17000001 cycles:    8466788 heartbeat IPC: 1.99432 cumulative IPC: 2.00785 (Simulation time: 0 hr 0 min 22 sec) 
Heartbeat CPU  0 instructions:   18000001 cycles:    8968052 heartbeat IPC: 1.99496 cumulative IPC: 2.00712 (Simulation time: 0 hr 0 min 23 sec) 
Heartbeat CPU  0 instructions:   19000003 cycles:    9469105 heartbeat IPC: 1.99580 cumulative IPC: 2.00653 (Simulation time: 0 hr 0 min 24 sec) 
Heartbeat CPU  0 instructions:   20000000 cycles:    9965588 heartbeat IPC: 2.01416 cumulative IPC: 2.00691 (Simulation time: 0 hr 0 min 25 sec) 
Heartbeat CPU  0 instructions:   21000001 cycles:   10457655 heartbeat IPC: 2.03225 cumulative IPC: 2.00810 (Simulation time: 0 hr 0 min 27 sec) 
Heartbeat CPU  0 instructions:   22000003 cycles:   10959263 heartbeat IPC: 1.99359 cumulative IPC: 2.00743 (Simulation time: 0 hr 0 min 28 sec) 
Heartbeat CPU  0 instructions:   23000001 cycles:   11461353 heartbeat IPC: 1.99167 cumulative IPC: 2.00674 (Simulation time: 0 hr 0 min 29 sec) 
Heartbeat CPU  0 instructions:   24000000 cycles:   11962604 heartbeat IPC: 1.99501 cumulative IPC: 2.00625 (Simulation time: 0 hr 0 min 30 sec) 
Heartbeat CPU  0 instructions:   25000003 cycles:   12449177 heartbeat IPC: 2.05520 cumulative IPC: 2.00817 (Simulation time: 0 hr 0 min 32 sec) 
Heartbeat CPU  0 instructions:   26000001 cycles:   12950824 heartbeat IPC: 1.99343 cumulative IPC: 2.00759 (Simulation time: 0 hr 0 min 33 sec) 
Heartbeat CPU  0 instructions:   27000003 cycles:   13452676 heartbeat IPC: 1.99262 cumulative IPC: 2.00704 (Simulation time: 0 hr 0 min 34 sec) 
Heartbeat CPU  0 instructions:   28000000 cycles:   13954394 heartbeat IPC: 1.99315 cumulative IPC: 2.00654 (Simulation time: 0 hr 0 min 35 sec) 
Heartbeat CPU  0 instructions:   29000002 cycles:   14451868 heartbeat IPC: 2.01016 cumulative IPC: 2.00666 (Simulation time: 0 hr 0 min 37 sec) 
Heartbeat CPU  0 instructions:   30000000 cycles:   14942453 heartbeat IPC: 2.03838 cumulative IPC: 2.00770 (Simulation time: 0 hr 0 min 38 sec) 
Heartbeat CPU  0 instructions:   31000002 cycles:   15444233 heartbeat IPC: 1.99291 cumulative IPC: 2.00722 (Simulation time: 0 hr 0 min 39 sec) 
Heartbeat CPU  0 instructions:   32000000 cycles:   15945506 heartbeat IPC: 1.99492 cumulative IPC: 2.00683 (Simulation time: 0 hr 0 min 40 sec) 
Heartbeat CPU  0 instructions:   33000001 cycles:   16447196 heartbeat IPC: 1.99326 cumulative IPC: 2.00642 (Simulation time: 0 hr 0 min 42 sec) 
Heartbeat CPU  0 instructions:   34000003 cycles:   16935802 heartbeat IPC: 2.04664 cumulative IPC: 2.00758 (Simulation time: 0 hr 0 min 43 sec) 
Heartbeat CPU  0 instructions:   35000000 cycles:   17435231 heartbeat IPC: 2.00228 cumulative IPC: 2.00743 (Simulation time: 0 hr 0 min 44 sec) 
Heartbeat CPU  0 instructions:   36000000 cycles:   17936607 heartbeat IPC: 1.99451 cumulative IPC: 2.00707 (Simulation time: 0 hr 0 min 45 sec) 
Heartbeat CPU  0 instructions:   37000003 cycles:   18438176 heartbeat IPC: 1.99375 cumulative IPC: 2.00671 (Simulation time: 0 hr 0 min 47 sec) 
Heartbeat CPU  0 instructions:   38000003 cycles:   18938604 heartbeat IPC: 1.99829 cumulative IPC: 2.00648 (Simulation time: 0 hr 0 min 48 sec) 
Heartbeat CPU  0 instructions:   39000003 cycles:   19426119 heartbeat IPC: 2.05122 cumulative IPC: 2.00761 (Simulation time: 0 hr 0 min 49 sec) 
Heartbeat CPU  0 instructions:   40000000 cycles:   19927117 heartbeat IPC: 1.99601 cumulative IPC: 2.00731 (Simulation time: 0 hr 0 min 50 sec) 
Heartbeat CPU  0 instructions:   41000001 cycles:   20428819 heartbeat IPC: 1.99322 cumulative IPC: 2.00697 (Simulation time: 0 hr 0 min 52 sec) 
Heartbeat CPU  0 instructions:   42000002 cycles:   20930553 heartbeat IPC: 1.99309 cumulative IPC: 2.00664 (Simulation time: 0 hr 0 min 53 sec) 
Heartbeat CPU  0 instructions:   43000003 cycles:   21421776 heartbeat IPC: 2.03574 cumulative IPC: 2.00730 (Simulation time: 0 hr 0 min 54 sec) 
Heartbeat CPU  0 instructions:   44000000 cycles:   21918631 heartbeat IPC: 2.01265 cumulative IPC: 2.00742 (Simulation time: 0 hr 0 min 55 sec) 
Heartbeat CPU  0 instructions:   45000001 cycles:   22420392 heartbeat IPC: 1.99298 cumulative IPC: 2.00710 (Simulation time: 0 hr 0 min 57 sec) 
Heartbeat CPU  0 instructions:   46000000 cycles:   22921842 heartbeat IPC: 1.99421 cumulative IPC: 2.00682 (Simulation time: 0 hr 0 min 58 sec) 
Heartbeat CPU  0 instructions:   47000002 cycles:   23423405 heartbeat IPC: 1.99377 cumulative IPC: 2.00654 (Simulation time: 0 hr 0 min 59 sec) 
Heartbeat CPU  0 instructions:   48000000 cycles:   23909925 heartbeat IPC: 2.05541 cumulative IPC: 2.00753 (Simulation time: 0 hr 1 min 0 sec) 
Heartbeat CPU  0 instructions:   49000002 cycles:   24411587 heartbeat IPC: 1.99338 cumulative IPC: 2.00724 (Simulation time: 0 hr 1 min 1 sec) 
Heartbeat CPU  0 instructions:   50000003 cycles:   24912646 heartbeat IPC: 1.99577 cumulative IPC: 2.00701 (Simulation time: 0 hr 1 min 3 sec) 
Heartbeat CPU  0 instructions:   51000003 cycles:   25413799 heartbeat IPC: 1.99540 cumulative IPC: 2.00678 (Simulation time: 0 hr 1 min 4 sec) 
Heartbeat CPU  0 instructions:   52000000 cycles:   25907277 heartbeat IPC: 2.02643 cumulative IPC: 2.00716 (Simulation time: 0 hr 1 min 5 sec) 
Heartbeat CPU  0 instructions:   53000001 cycles:   26402226 heartbeat IPC: 2.02041 cumulative IPC: 2.00741 (Simulation time: 0 hr 1 min 6 sec) 
Heartbeat CPU  0 instructions:   54000003 cycles:   26903719 heartbeat IPC: 1.99405 cumulative IPC: 2.00716 (Simulation time: 0 hr 1 min 8 sec) 
Heartbeat CPU  0 instructions:   55000000 cycles:   27405003 heartbeat IPC: 1.99487 cumulative IPC: 2.00693 (Simulation time: 0 hr 1 min 9 sec) 
Heartbeat CPU  0 instructions:   56000000 cycles:   27906245 heartbeat IPC: 1.99504 cumulative IPC: 2.00672 (Simulation time: 0 hr 1 min 10 sec) 
Heartbeat CPU  0 instructions:   57000002 cycles:   28393446 heartbeat IPC: 2.05255 cumulative IPC: 2.00751 (Simulation time: 0 hr 1 min 11 sec) 
Heartbeat CPU  0 instructions:   58000003 cycles:   28894800 heartbeat IPC: 1.99460 cumulative IPC: 2.00728 (Simulation time: 0 hr 1 min 13 sec) 
Heartbeat CPU  0 instructions:   59000001 cycles:   29396247 heartbeat IPC: 1.99422 cumulative IPC: 2.00706 (Simulation time: 0 hr 1 min 14 sec) 
Heartbeat CPU  0 instructions:   60000000 cycles:   29897123 heartbeat IPC: 1.99650 cumulative IPC: 2.00688 (Simulation time: 0 hr 1 min 15 sec) 
Heartbeat CPU  0 instructions:   61000000 cycles:   30392951 heartbeat IPC: 2.01683 cumulative IPC: 2.00704 (Simulation time: 0 hr 1 min 17 sec) 
Heartbeat CPU  0 instructions:   62000001 cycles:   30885436 heartbeat IPC: 2.03052 cumulative IPC: 2.00742 (Simulation time: 0 hr 1 min 18 sec) 
Heartbeat CPU  0 instructions:   63000001 cycles:   31387076 heartbeat IPC: 1.99346 cumulative IPC: 2.00720 (Simulation time: 0 hr 1 min 19 sec) 
Heartbeat CPU  0 instructions:   64000000 cycles:   31889054 heartbeat IPC: 1.99212 cumulative IPC: 2.00696 (Simulation time: 0 hr 1 min 20 sec) 
Heartbeat CPU  0 instructions:   65000000 cycles:   32390538 heartbeat IPC: 1.99408 cumulative IPC: 2.00676 (Simulation time: 0 hr 1 min 22 sec) 
Heartbeat CPU  0 instructions:   66000003 cycles:   32876875 heartbeat IPC: 2.05619 cumulative IPC: 2.00749 (Simulation time: 0 hr 1 min 23 sec) 
Heartbeat CPU  0 instructions:   67000000 cycles:   33378643 heartbeat IPC: 1.99295 cumulative IPC: 2.00727 (Simulation time: 0 hr 1 min 24 sec) 
Heartbeat CPU  0 instructions:   68000000 cycles:   33880139 heartbeat IPC: 1.99403 cumulative IPC: 2.00708 (Simulation time: 0 hr 1 min 25 sec) 
Heartbeat CPU  0 instructions:   69000001 cycles:   34382050 heartbeat IPC: 1.99239 cumulative IPC: 2.00686 (Simulation time: 0 hr 1 min 26 sec) 
Heartbeat CPU  0 instructions:   70000000 cycles:   34879182 heartbeat IPC: 2.01154 cumulative IPC: 2.00693 (Simulation time: 0 hr 1 min 28 sec) 
Heartbeat CPU  0 instructions:   71000001 cycles:   35369609 heartbeat IPC: 2.03904 cumulative IPC: 2.00737 (Simulation time: 0 hr 1 min 29 sec) 
Heartbeat CPU  0 instructions:   72000000 cycles:   35871758 heartbeat IPC: 1.99144 cumulative IPC: 2.00715 (Simulation time: 0 hr 1 min 30 sec) 
Heartbeat CPU  0 instructions:   73000002 cycles:   36372992 heartbeat IPC: 1.99508 cumulative IPC: 2.00698 (Simulation time: 0 hr 1 min 31 sec) 
Heartbeat CPU  0 instructions:   74000003 cycles:   36874626 heartbeat IPC: 1.99349 cumulative IPC: 2.00680 (Simulation time: 0 hr 1 min 33 sec) 
Heartbeat CPU  0 instructions:   75000001 cycles:   37363189 heartbeat IPC: 2.04681 cumulative IPC: 2.00732 (Simulation time: 0 hr 1 min 34 sec) 
Heartbeat CPU  0 instructions:   76000000 cycles:   37862547 heartbeat IPC: 2.00257 cumulative IPC: 2.00726 (Simulation time: 0 hr 1 min 35 sec) 
Heartbeat CPU  0 instructions:   77000000 cycles:   38364308 heartbeat IPC: 1.99298 cumulative IPC: 2.00707 (Simulation time: 0 hr 1 min 36 sec) 
Heartbeat CPU  0 instructions:   78000003 cycles:   38865793 heartbeat IPC: 1.99408 cumulative IPC: 2.00691 (Simulation time: 0 hr 1 min 38 sec) 
Heartbeat CPU  0 instructions:   79000001 cycles:   39365932 heartbeat IPC: 1.99944 cumulative IPC: 2.00681 (Simulation time: 0 hr 1 min 39 sec) 
Heartbeat CPU  0 instructions:   80000000 cycles:   39854632 heartbeat IPC: 2.04624 cumulative IPC: 2.00729 (Simulation time: 0 hr 1 min 40 sec) 
Heartbeat CPU  0 instructions:   81000003 cycles:   40355471 heartbeat IPC: 1.99666 cumulative IPC: 2.00716 (Simulation time: 0 hr 1 min 41 sec) 
Heartbeat CPU  0 instructions:   82000003 cycles:   40856950 heartbeat IPC: 1.99410 cumulative IPC: 2.00700 (Simulation time: 0 hr 1 min 43 sec) 
Heartbeat CPU  0 instructions:   83000001 cycles:   41358661 heartbeat IPC: 1.99318 cumulative IPC: 2.00683 (Simulation time: 0 hr 1 min 44 sec) 
Heartbeat CPU  0 instructions:   84000000 cycles:   41849852 heartbeat IPC: 2.03587 cumulative IPC: 2.00718 (Simulation time: 0 hr 1 min 45 sec) 
Heartbeat CPU  0 instructions:   85000002 cycles:   42347196 heartbeat IPC: 2.01068 cumulative IPC: 2.00722 (Simulation time: 0 hr 1 min 46 sec) 
Heartbeat CPU  0 instructions:   86000002 cycles:   42848907 heartbeat IPC: 1.99318 cumulative IPC: 2.00705 (Simulation time: 0 hr 1 min 48 sec) 
Heartbeat CPU  0 instructions:   87000002 cycles:   43350518 heartbeat IPC: 1.99358 cumulative IPC: 2.00690 (Simulation time: 0 hr 1 min 49 sec) 
Heartbeat CPU  0 instructions:   88000000 cycles:   43852095 heartbeat IPC: 1.99371 cumulative IPC: 2.00675 (Simulation time: 0 hr 1 min 50 sec) 
Heartbeat CPU  0 instructions:   89000003 cycles:   44338834 heartbeat IPC: 2.05450 cumulative IPC: 2.00727 (Simulation time: 0 hr 1 min 51 sec) 
Heartbeat CPU  0 instructions:   90000002 cycles:   44840877 heartbeat IPC: 1.99186 cumulative IPC: 2.00710 (Simulation time: 0 hr 1 min 53 sec) 
Heartbeat CPU  0 instructions:   91000000 cycles:   45342159 heartbeat IPC: 1.99488 cumulative IPC: 2.00696 (Simulation time: 0 hr 1 min 54 sec) 
Heartbeat CPU  0 instructions:   92000000 cycles:   45843600 heartbeat IPC: 1.99425 cumulative IPC: 2.00682 (Simulation time: 0 hr 1 min 55 sec) 
Heartbeat CPU  0 instructions:   93000002 cycles:   46336462 heartbeat IPC: 2.02897 cumulative IPC: 2.00706 (Simulation time: 0 hr 1 min 56 sec) 
Heartbeat CPU  0 instructions:   94000003 cycles:   46832017 heartbeat IPC: 2.01794 cumulative IPC: 2.00717 (Simulation time: 0 hr 1 min 58 sec) 
Heartbeat CPU  0 instructions:   95000003 cycles:   47333312 heartbeat IPC: 1.99483 cumulative IPC: 2.00704 (Simulation time: 0 hr 1 min 59 sec) 
Heartbeat CPU  0 instructions:   96000000 cycles:   47834735 heartbeat IPC: 1.99432 cumulative IPC: 2.00691 (Simulation time: 0 hr 2 min 0 sec) 
Heartbeat CPU  0 instructions:   97000000 cycles:   48336041 heartbeat IPC: 1.99479 cumulative IPC: 2.00678 (Simulation time: 0 hr 2 min 1 sec) 
Heartbeat CPU  0 instructions:   98000000 cycles:   48822951 heartbeat IPC: 2.05377 cumulative IPC: 2.00725 (Simulation time: 0 hr 2 min 3 sec) 
Heartbeat CPU  0 instructions:   99000002 cycles:   49324682 heartbeat IPC: 1.99310 cumulative IPC: 2.00711 (Simulation time: 0 hr 2 min 4 sec) 
Heartbeat CPU  0 instructions:  100000000 cycles:   49826211 heartbeat IPC: 1.99390 cumulative IPC: 2.00698 (Simulation time: 0 hr 2 min 5 sec) 

Warmup complete CPU  0 instructions:  100000003 cycles:   49826212 (Simulation time: 0 hr 2 min 5 sec) 

Heartbeat CPU  0 instructions:  101000001 cycles:   51117612 heartbeat IPC: 0.77435 cumulative IPC: 0.77435 (Simulation time: 0 hr 2 min 7 sec) 
Heartbeat CPU  0 instructions:  102000002 cycles:   52368359 heartbeat IPC: 0.79952 cumulative IPC: 0.78674 (Simulation time: 0 hr 2 min 8 sec) 
Heartbeat CPU  0 instructions:  103000003 cycles:   53661904 heartbeat IPC: 0.77307 cumulative IPC: 0.78213 (Simulation time: 0 hr 2 min 10 sec) 
Heartbeat CPU  0 instructions:  104000000 cycles:   54959492 heartbeat IPC: 0.77066 cumulative IPC: 0.77923 (Simulation time: 0 hr 2 min 11 sec) 
Heartbeat CPU  0 instructions:  105000000 cycles:   56240104 heartbeat IPC: 0.78088 cumulative IPC: 0.77956 (Simulation time: 0 hr 2 min 13 sec) 
Heartbeat CPU  0 instructions:  106000001 cycles:   57535474 heartbeat IPC: 0.77198 cumulative IPC: 0.77828 (Simulation time: 0 hr 2 min 14 sec) 
Heartbeat CPU  0 instructions:  107000002 cycles:   58770474 heartbeat IPC: 0.80972 cumulative IPC: 0.78262 (Simulation time: 0 hr 2 min 16 sec) 
Heartbeat CPU  0 instructions:  108000000 cycles:   60076892 heartbeat IPC: 0.76545 cumulative IPC: 0.78044 (Simulation time: 0 hr 2 min 17 sec) 
Heartbeat CPU  0 instructions:  109000003 cycles:   61388309 heartbeat IPC: 0.76254 cumulative IPC: 0.77841 (Simulation time: 0 hr 2 min 19 sec) 
Heartbeat CPU  0 instructions:  110000001 cycles:   62683834 heartbeat IPC: 0.77189 cumulative IPC: 0.77775 (Simulation time: 0 hr 2 min 20 sec) 
Heartbeat CPU  0 instructions:  111000003 cycles:   63930754 heartbeat IPC: 0.80198 cumulative IPC: 0.77989 (Simulation time: 0 hr 2 min 22 sec) 
Heartbeat CPU  0 instructions:  112000000 cycles:   65207562 heartbeat IPC: 0.78320 cumulative IPC: 0.78017 (Simulation time: 0 hr 2 min 23 sec) 
Heartbeat CPU  0 instructions:  113000001 cycles:   66517988 heartbeat IPC: 0.76311 cumulative IPC: 0.77883 (Simulation time: 0 hr 2 min 25 sec) 
Heartbeat CPU  0 instructions:  114000002 cycles:   67835187 heartbeat IPC: 0.75919 cumulative IPC: 0.77739 (Simulation time: 0 hr 2 min 26 sec) 
Heartbeat CPU  0 instructions:  115000000 cycles:   69134458 heartbeat IPC: 0.76966 cumulative IPC: 0.77687 (Simulation time: 0 hr 2 min 28 sec) 
Heartbeat CPU  0 instructions:  116000000 cycles:   70356419 heartbeat IPC: 0.81836 cumulative IPC: 0.77934 (Simulation time: 0 hr 2 min 29 sec) 
Heartbeat CPU  0 instructions:  117000002 cycles:   71648908 heartbeat IPC: 0.77370 cumulative IPC: 0.77901 (Simulation time: 0 hr 2 min 31 sec) 
Heartbeat CPU  0 instructions:  118000001 cycles:   72955106 heartbeat IPC: 0.76558 cumulative IPC: 0.77825 (Simulation time: 0 hr 2 min 32 sec) 
Heartbeat CPU  0 instructions:  119000002 cycles:   74275140 heartbeat IPC: 0.75756 cumulative IPC: 0.77713 (Simulation time: 0 hr 2 min 34 sec) 
Heartbeat CPU  0 instructions:  120000000 cycles:   75562746 heartbeat IPC: 0.77663 cumulative IPC: 0.77711 (Simulation time: 0 hr 2 min 35 sec) 
Heartbeat CPU  0 instructions:  121000001 cycles:   76813708 heartbeat IPC: 0.79939 cumulative IPC: 0.77814 (Simulation time: 0 hr 2 min 37 sec) 
Heartbeat CPU  0 instructions:  122000001 cycles:   78108469 heartbeat IPC: 0.77234 cumulative IPC: 0.77787 (Simulation time: 0 hr 2 min 38 sec) 
Heartbeat CPU  0 instructions:  123000001 cycles:   79428458 heartbeat IPC: 0.75758 cumulative IPC: 0.77697 (Simulation time: 0 hr 2 min 40 sec) 
Heartbeat CPU  0 instructions:  124000000 cycles:   80753759 heartbeat IPC: 0.75454 cumulative IPC: 0.77601 (Simulation time: 0 hr 2 min 41 sec) 
Heartbeat CPU  0 instructions:  125000000 cycles:   82019537 heartbeat IPC: 0.79003 cumulative IPC: 0.77656 (Simulation time: 0 hr 2 min 43 sec) 
Heartbeat CPU  0 instructions:  126000000 cycles:   83292890 heartbeat IPC: 0.78533 cumulative IPC: 0.77689 (Simulation time: 0 hr 2 min 44 sec) 
Heartbeat CPU  0 instructions:  127000000 cycles:   84577622 heartbeat IPC: 0.77837 cumulative IPC: 0.77695 (Simulation time: 0 hr 2 min 46 sec) 
Heartbeat CPU  0 instructions:  128000000 cycles:   85866737 heartbeat IPC: 0.77573 cumulative IPC: 0.77690 (Simulation time: 0 hr 2 min 47 sec) 
Heartbeat CPU  0 instructions:  129000002 cycles:   87167294 heartbeat IPC: 0.76890 cumulative IPC: 0.77662 (Simulation time: 0 hr 2 min 49 sec) 
Heartbeat CPU  0 instructions:  130000002 cycles:   88425625 heartbeat IPC: 0.79470 cumulative IPC: 0.77721 (Simulation time: 0 hr 2 min 50 sec) 
Heartbeat CPU  0 instructions:  131000002 cycles:   89709636 heartbeat IPC: 0.77881 cumulative IPC: 0.77727 (Simulation time: 0 hr 2 min 52 sec) 
Heartbeat CPU  0 instructions:  132000000 cycles:   90996947 heartbeat IPC: 0.77681 cumulative IPC: 0.77725 (Simulation time: 0 hr 2 min 53 sec) 
Heartbeat CPU  0 instructions:  133000000 cycles:   92309023 heartbeat IPC: 0.76215 cumulative IPC: 0.77678 (Simulation time: 0 hr 2 min 55 sec) 
Heartbeat CPU  0 instructions:  134000000 cycles:   93569728 heartbeat IPC: 0.79321 cumulative IPC: 0.77726 (Simulation time: 0 hr 2 min 56 sec) 
Heartbeat CPU  0 instructions:  135000002 cycles:   94871774 heartbeat IPC: 0.76802 cumulative IPC: 0.77699 (Simulation time: 0 hr 2 min 58 sec) 
Heartbeat CPU  0 instructions:  136000000 cycles:   96161844 heartbeat IPC: 0.77515 cumulative IPC: 0.77694 (Simulation time: 0 hr 2 min 59 sec) 
Heartbeat CPU  0 instructions:  137000001 cycles:   97442198 heartbeat IPC: 0.78103 cumulative IPC: 0.77705 (Simulation time: 0 hr 3 min 1 sec) 
Heartbeat CPU  0 instructions:  138000001 cycles:   98714963 heartbeat IPC: 0.78569 cumulative IPC: 0.77727 (Simulation time: 0 hr 3 min 2 sec) 
Heartbeat CPU  0 instructions:  139000003 cycles:   99962801 heartbeat IPC: 0.80139 cumulative IPC: 0.77788 (Simulation time: 0 hr 3 min 4 sec) 
Heartbeat CPU  0 instructions:  140000000 cycles:  101269682 heartbeat IPC: 0.76518 cumulative IPC: 0.77755 (Simulation time: 0 hr 3 min 5 sec) 
Heartbeat CPU  0 instructions:  141000003 cycles:  102564778 heartbeat IPC: 0.77215 cumulative IPC: 0.77742 (Simulation time: 0 hr 3 min 7 sec) 
Heartbeat CPU  0 instructions:  142000000 cycles:  103849151 heartbeat IPC: 0.77859 cumulative IPC: 0.77745 (Simulation time: 0 hr 3 min 8 sec) 
Heartbeat CPU  0 instructions:  143000001 cycles:  105093058 heartbeat IPC: 0.80392 cumulative IPC: 0.77804 (Simulation time: 0 hr 3 min 10 sec) 
Heartbeat CPU  0 instructions:  144000000 cycles:  106378328 heartbeat IPC: 0.77805 cumulative IPC: 0.77804 (Simulation time: 0 hr 3 min 11 sec) 
Heartbeat CPU  0 instructions:  145000002 cycles:  107686052 heartbeat IPC: 0.76469 cumulative IPC: 0.77774 (Simulation time: 0 hr 3 min 13 sec) 
Heartbeat CPU  0 instructions:  146000002 cycles:  108967280 heartbeat IPC: 0.78050 cumulative IPC: 0.77780 (Simulation time: 0 hr 3 min 14 sec) 
Heartbeat CPU  0 instructions:  147000002 cycles:  110328359 heartbeat IPC: 0.73471 cumulative IPC: 0.77683 (Simulation time: 0 hr 3 min 16 sec) 
Heartbeat CPU  0 instructions:  148000000 cycles:  113013419 heartbeat IPC: 0.37243 cumulative IPC: 0.75965 (Simulation time: 0 hr 3 min 18 sec) 
Heartbeat CPU  0 instructions:  149000002 cycles:  115665889 heartbeat IPC: 0.37701 cumulative IPC: 0.74423 (Simulation time: 0 hr 3 min 20 sec) 
Heartbeat CPU  0 instructions:  150000002 cycles:  118239410 heartbeat IPC: 0.38857 cumulative IPC: 0.73085 (Simulation time: 0 hr 3 min 22 sec) 
Heartbeat CPU  0 instructions:  151000000 cycles:  120770954 heartbeat IPC: 0.39502 cumulative IPC: 0.71887 (Simulation time: 0 hr 3 min 23 sec) 
Heartbeat CPU  0 instructions:  152000000 cycles:  123335470 heartbeat IPC: 0.38994 cumulative IPC: 0.70739 (Simulation time: 0 hr 3 min 25 sec) 
Heartbeat CPU  0 instructions:  153000003 cycles:  125936852 heartbeat IPC: 0.38441 cumulative IPC: 0.69635 (Simulation time: 0 hr 3 min 27 sec) 
Heartbeat CPU  0 instructions:  154000002 cycles:  128510170 heartbeat IPC: 0.38860 cumulative IPC: 0.68629 (Simulation time: 0 hr 3 min 29 sec) 
Heartbeat CPU  0 instructions:  155000003 cycles:  131109155 heartbeat IPC: 0.38477 cumulative IPC: 0.67665 (Simulation time: 0 hr 3 min 31 sec) 
Heartbeat CPU  0 instructions:  156000000 cycles:  133757069 heartbeat IPC: 0.37765 cumulative IPC: 0.66722 (Simulation time: 0 hr 3 min 33 sec) 
Heartbeat CPU  0 instructions:  157000003 cycles:  136382783 heartbeat IPC: 0.38085 cumulative IPC: 0.65853 (Simulation time: 0 hr 3 min 35 sec) 
Heartbeat CPU  0 instructions:  158000003 cycles:  139022943 heartbeat IPC: 0.37876 cumulative IPC: 0.65025 (Simulation time: 0 hr 3 min 36 sec) 
Heartbeat CPU  0 instructions:  159000003 cycles:  141662960 heartbeat IPC: 0.37879 cumulative IPC: 0.64244 (Simulation time: 0 hr 3 min 38 sec) 
Heartbeat CPU  0 instructions:  160000000 cycles:  144309134 heartbeat IPC: 0.37790 cumulative IPC: 0.63504 (Simulation time: 0 hr 3 min 40 sec) 
Heartbeat CPU  0 instructions:  161000000 cycles:  146937960 heartbeat IPC: 0.38040 cumulative IPC: 0.62814 (Simulation time: 0 hr 3 min 42 sec) 
Heartbeat CPU  0 instructions:  162000000 cycles:  149583588 heartbeat IPC: 0.37798 cumulative IPC: 0.62151 (Simulation time: 0 hr 3 min 44 sec) 
Heartbeat CPU  0 instructions:  163000002 cycles:  152252166 heartbeat IPC: 0.37473 cumulative IPC: 0.61508 (Simulation time: 0 hr 3 min 46 sec) 
Heartbeat CPU  0 instructions:  164000000 cycles:  154925467 heartbeat IPC: 0.37407 cumulative IPC: 0.60895 (Simulation time: 0 hr 3 min 48 sec) 
Heartbeat CPU  0 instructions:  165000001 cycles:  157560612 heartbeat IPC: 0.37949 cumulative IPC: 0.60334 (Simulation time: 0 hr 3 min 50 sec) 
Heartbeat CPU  0 instructions:  166000001 cycles:  160190232 heartbeat IPC: 0.38028 cumulative IPC: 0.59802 (Simulation time: 0 hr 3 min 52 sec) 
Heartbeat CPU  0 instructions:  167000001 cycles:  162825559 heartbeat IPC: 0.37946 cumulative IPC: 0.59292 (Simulation time: 0 hr 3 min 53 sec) 
Heartbeat CPU  0 instructions:  168000000 cycles:  165475760 heartbeat IPC: 0.37733 cumulative IPC: 0.58798 (Simulation time: 0 hr 3 min 55 sec) 
Heartbeat CPU  0 instructions:  169000002 cycles:  168127151 heartbeat IPC: 0.37716 cumulative IPC: 0.58326 (Simulation time: 0 hr 3 min 57 sec) 
Heartbeat CPU  0 instructions:  170000002 cycles:  170767573 heartbeat IPC: 0.37873 cumulative IPC: 0.57879 (Simulation time: 0 hr 3 min 59 sec) 
Heartbeat CPU  0 instructions:  171000002 cycles:  173420550 heartbeat IPC: 0.37694 cumulative IPC: 0.57446 (Simulation time: 0 hr 4 min 1 sec) 
Heartbeat CPU  0 instructions:  172000000 cycles:  176060272 heartbeat IPC: 0.37883 cumulative IPC: 0.57037 (Simulation time: 0 hr 4 min 3 sec) 
Heartbeat CPU  0 instructions:  173000002 cycles:  178695204 heartbeat IPC: 0.37952 cumulative IPC: 0.56647 (Simulation time: 0 hr 4 min 5 sec) 
Heartbeat CPU  0 instructions:  174000002 cycles:  181361661 heartbeat IPC: 0.37503 cumulative IPC: 0.56259 (Simulation time: 0 hr 4 min 7 sec) 
Heartbeat CPU  0 instructions:  175000002 cycles:  184015128 heartbeat IPC: 0.37687 cumulative IPC: 0.55891 (Simulation time: 0 hr 4 min 9 sec) 
Heartbeat CPU  0 instructions:  176000000 cycles:  186645732 heartbeat IPC: 0.38014 cumulative IPC: 0.55548 (Simulation time: 0 hr 4 min 10 sec) 
Heartbeat CPU  0 instructions:  177000003 cycles:  189300572 heartbeat IPC: 0.37667 cumulative IPC: 0.55207 (Simulation time: 0 hr 4 min 12 sec) 
Heartbeat CPU  0 instructions:  178000000 cycles:  191932478 heartbeat IPC: 0.37995 cumulative IPC: 0.54888 (Simulation time: 0 hr 4 min 14 sec) 
Heartbeat CPU  0 instructions:  179000002 cycles:  194573166 heartbeat IPC: 0.37869 cumulative IPC: 0.54578 (Simulation time: 0 hr 4 min 16 sec) 
Heartbeat CPU  0 instructions:  180000000 cycles:  197224192 heartbeat IPC: 0.37721 cumulative IPC: 0.54275 (Simulation time: 0 hr 4 min 18 sec) 
Heartbeat CPU  0 instructions:  181000003 cycles:  199875118 heartbeat IPC: 0.37723 cumulative IPC: 0.53982 (Simulation time: 0 hr 4 min 20 sec) 
Heartbeat CPU  0 instructions:  182000002 cycles:  202521523 heartbeat IPC: 0.37787 cumulative IPC: 0.53702 (Simulation time: 0 hr 4 min 22 sec) 
Heartbeat CPU  0 instructions:  183000000 cycles:  205157768 heartbeat IPC: 0.37933 cumulative IPC: 0.53434 (Simulation time: 0 hr 4 min 24 sec) 
Heartbeat CPU  0 instructions:  184000000 cycles:  207792177 heartbeat IPC: 0.37959 cumulative IPC: 0.53176 (Simulation time: 0 hr 4 min 26 sec) 
Heartbeat CPU  0 instructions:  185000003 cycles:  210423324 heartbeat IPC: 0.38006 cumulative IPC: 0.52927 (Simulation time: 0 hr 4 min 27 sec) 
Heartbeat CPU  0 instructions:  186000001 cycles:  213060045 heartbeat IPC: 0.37926 cumulative IPC: 0.52685 (Simulation time: 0 hr 4 min 29 sec) 
Heartbeat CPU  0 instructions:  187000002 cycles:  215704258 heartbeat IPC: 0.37818 cumulative IPC: 0.52448 (Simulation time: 0 hr 4 min 31 sec) 
Heartbeat CPU  0 instructions:  188000000 cycles:  218352326 heartbeat IPC: 0.37763 cumulative IPC: 0.52217 (Simulation time: 0 hr 4 min 33 sec) 
Heartbeat CPU  0 instructions:  189000001 cycles:  220980496 heartbeat IPC: 0.38049 cumulative IPC: 0.52000 (Simulation time: 0 hr 4 min 35 sec) 
Heartbeat CPU  0 instructions:  190000003 cycles:  223644062 heartbeat IPC: 0.37544 cumulative IPC: 0.51778 (Simulation time: 0 hr 4 min 37 sec) 
Heartbeat CPU  0 instructions:  191000002 cycles:  226289555 heartbeat IPC: 0.37800 cumulative IPC: 0.51569 (Simulation time: 0 hr 4 min 39 sec) 
Heartbeat CPU  0 instructions:  192000000 cycles:  228835631 heartbeat IPC: 0.39276 cumulative IPC: 0.51394 (Simulation time: 0 hr 4 min 41 sec) 
Heartbeat CPU  0 instructions:  193000003 cycles:  230292471 heartbeat IPC: 0.68642 cumulative IPC: 0.51533 (Simulation time: 0 hr 4 min 42 sec) 
Heartbeat CPU  0 instructions:  194000001 cycles:  234737175 heartbeat IPC: 0.22499 cumulative IPC: 0.50835 (Simulation time: 0 hr 4 min 45 sec) 
Heartbeat CPU  0 instructions:  195000000 cycles:  237759709 heartbeat IPC: 0.33085 cumulative IPC: 0.50550 (Simulation time: 0 hr 4 min 48 sec) 
Heartbeat CPU  0 instructions:  196000000 cycles:  239044076 heartbeat IPC: 0.77859 cumulative IPC: 0.50735 (Simulation time: 0 hr 4 min 49 sec) 
Heartbeat CPU  0 instructions:  197000000 cycles:  240329839 heartbeat IPC: 0.77775 cumulative IPC: 0.50918 (Simulation time: 0 hr 4 min 51 sec) 
Heartbeat CPU  0 instructions:  198000003 cycles:  241624804 heartbeat IPC: 0.77222 cumulative IPC: 0.51095 (Simulation time: 0 hr 4 min 52 sec) 
Heartbeat CPU  0 instructions:  199000002 cycles:  242940795 heartbeat IPC: 0.75988 cumulative IPC: 0.51265 (Simulation time: 0 hr 4 min 54 sec) 
Heartbeat CPU  0 instructions:  200000000 cycles:  244248541 heartbeat IPC: 0.76467 cumulative IPC: 0.51434 (Simulation time: 0 hr 4 min 56 sec) 
Finished CPU 0 instructions: 100000000 cycles: 194422358 cumulative IPC: 0.51434 (Simulation time: 0 hr 4 min 56 sec) 

ChampSim completed all CPUs

[ROI Statistics]
Core_0_instructions 100000000
Core_0_cycles 194422358
Core_0_IPC 0.51434

Core_0_branch_prediction_accuracy 99.15344
Core_0_branch_MPKI 0.35029
Core_0_average_ROB_occupancy_at_mispredict 249.95595

Core_0_L1D_total_access 27375824
Core_0_L1D_total_hit 25934524
Core_0_L1D_total_miss 1441300
Core_0_L1D_loads 22853811
Core_0_L1D_load_hit 21749516
Core_0_L1D_load_miss 1104295
Core_0_L1D_RFOs 4522013
Core_0_L1D_RFO_hit 4185008
Core_0_L1D_RFO_miss 337005
Core_0_L1D_prefetches 0
Core_0_L1D_prefetch_hit 0
Core_0_L1D_prefetch_miss 0
Core_0_L1D_writebacks 0
Core_0_L1D_writeback_hit 0
Core_0_L1D_writeback_miss 0
Core_0_L1D_prefetch_requested 0
Core_0_L1D_prefetch_issued 0
Core_0_L1D_prefetch_useful 0
Core_0_L1D_prefetch_useless 0
Core_0_L1D_prefetch_late 0
Core_0_L1D_average_miss_latency 156.70899

Core_0_L1I_total_access 22844664
Core_0_L1I_total_hit 22844444
Core_0_L1I_total_miss 220
Core_0_L1I_loads 22844664
Core_0_L1I_load_hit 22844444
Core_0_L1I_load_miss 220
Core_0_L1I_RFOs 0
Core_0_L1I_RFO_hit 0
Core_0_L1I_RFO_miss 0
Core_0_L1I_prefetches 0
Core_0_L1I_prefetch_hit 0
Core_0_L1I_prefetch_miss 0
Core_0_L1I_writebacks 0
Core_0_L1I_writeback_hit 0
Core_0_L1I_writeback_miss 0
Core_0_L1I_prefetch_requested 0
Core_0_L1I_prefetch_issued 0
Core_0_L1I_prefetch_useful 0
Core_0_L1I_prefetch_useless 0
Core_0_L1I_prefetch_late 0
Core_0_L1I_average_miss_latency 260.01364

Core_0_L2C_total_access 1994606
Core_0_L2C_total_hit 991492
Core_0_L2C_total_miss 1003114
Core_0_L2C_loads 1104513
Core_0_L2C_load_hit 317926
Core_0_L2C_load_miss 786587
Core_0_L2C_RFOs 336959
Core_0_L2C_RFO_hit 120580
Core_0_L2C_RFO_miss 216379
Core_0_L2C_prefetches 0
Core_0_L2C_prefetch_hit 0
Core_0_L2C_prefetch_miss 0
Core_0_L2C_writebacks 553134
Core_0_L2C_writeback_hit 552986
Core_0_L2C_writeback_miss 148
Core_0_L2C_prefetch_requested 0
Core_0_L2C_prefetch_issued 0
Core_0_L2C_prefetch_useful 0
Core_0_L2C_prefetch_useless 0
Core_0_L2C_prefetch_late 0
Core_0_L2C_average_miss_latency 204.25255

Core_0_LLC_total_access 1407874
Core_0_LLC_total_hit 174509
Core_0_LLC_total_miss 1233365
Core_0_LLC_loads 786587
Core_0_LLC_load_hit 69804
Core_0_LLC_load_miss 716783
Core_0_LLC_RFOs 216379
Core_0_LLC_RFO_hit 14628
Core_0_LLC_RFO_miss 201751
Core_0_LLC_prefetches 0
Core_0_LLC_prefetch_hit 0
Core_0_LLC_prefetch_miss 0
Core_0_LLC_writebacks 404908
Core_0_LLC_writeback_hit 90077
Core_0_LLC_writeback_miss 314831
Core_0_LLC_prefetch_requested 0
Core_0_LLC_prefetch_issued 0
Core_0_LLC_prefetch_useful 0
Core_0_LLC_prefetch_useless 0
Core_0_LLC_prefetch_late 0
Core_0_LLC_average_miss_latency 141.09629

Core_0_major_page_fault 0
Core_0_minor_page_fault 15627

Channel_0_RQ_row_buffer_hit 232190
Channel_0_RQ_row_buffer_miss 686294
Channel_0_WQ_row_buffer_hit 131667
Channel_0_WQ_row_buffer_miss 239458
Channel_0_WQ_full 0
Channel_0_dbus_congested 256441

avg_congested_cycle 10
