*************************************************
   ChampSim Multicore Out-of-Order Simulator
   Last compiled: Dec 23 2023 13:55:55
*************************************************

trace_0 ./test_trace/437.leslie3d-134B.champsimtrace.xz
CPU 0 L1D next line prefetcher
CPU 0 L2C next line prefetcher
LLC Next Line Prefetcher
warmup_instructions 100000000
simulation_instructions 100000000
champsim_seed 218

num_cpus 1
cpu_freq 4000
dram_io_freq 2400
page_size 4096
block_size 64
max_read_per_cycle 8
max_fill_per_cycle 1
dram_channels 1
dram_ranks 1
dram_banks 8
dram_rows 65536
dram_columns 128
dram_row_size 8
dram_size 4096
dram_pages 1048576

fetch_width 6
decode_width 6
exec_width 4
lq_width 2
sq_width 2
retire_width 4
scheduler_size 128
branch_mispredict_penalty 20
rob_size 256
lq_size 72
sq_size 56
num_instr_destinations_sparc 4
num_instr_destinations 2
num_instr_sources 4

itlb_set 16
itlb_way 8
itlb_rq_size 16
itlb_wq_size 16
itlb_pq_size 0
itlb_mshr_size 8
itlb_latency 1

dtlb_set 16
dtlb_way 4
dtlb_rq_size 16
dtlb_wq_size 16
dtlb_pq_size 0
dtlb_mshr_size 8
dtlb_latency 1

stlb_set 128
stlb_way 12
stlb_rq_size 32
stlb_wq_size 32
stlb_pq_size 0
stlb_mshr_size 16
stlb_latency 8

l1i_size 32
l1i_set 64
l1i_way 8
l1i_rq_size 64
l1i_wq_size 64
l1i_pq_size 8
l1i_mshr_size 8
l1i_latency 1

l1d_size 32
l1d_set 64
l1d_way 8
l1d_rq_size 64
l1d_wq_size 64
l1d_pq_size 8
l1d_mshr_size 16
l1d_latency 4

l2c_size 512
l2c_set 1024
l2c_way 8
l2c_rq_size 32
l2c_wq_size 32
l2c_pq_size 16
l2c_mshr_size 32
l2c_latency 10

llc_size 2048
llc_set 2048
llc_way 16
llc_rq_size 32
llc_wq_size 32
llc_pq_size 32
llc_mshr_size 64
llc_latency 20

dram_channel_width 8
dram_wq_size 64
dram_rq_size 64
tRP 15
tRCD 15
tCAS 12.5
dram_dbus_turn_around_time 30
dram_write_high_wm 56
dram_write_low_wm 48
min_dram_writes_per_switch 16
dram_mtps 2400
dram_dbus_return_time 13


Heartbeat CPU  0 instructions:    1000002 cycles:     502359 heartbeat IPC: 1.99061 cumulative IPC: 1.99061 (Simulation time: 0 hr 0 min 1 sec) 
Heartbeat CPU  0 instructions:    2000001 cycles:     993957 heartbeat IPC: 2.03418 cumulative IPC: 2.01216 (Simulation time: 0 hr 0 min 3 sec) 
Heartbeat CPU  0 instructions:    3000001 cycles:    1490679 heartbeat IPC: 2.01320 cumulative IPC: 2.01251 (Simulation time: 0 hr 0 min 4 sec) 
Heartbeat CPU  0 instructions:    4000000 cycles:    1992300 heartbeat IPC: 1.99353 cumulative IPC: 2.00773 (Simulation time: 0 hr 0 min 5 sec) 
Heartbeat CPU  0 instructions:    5000000 cycles:    2494154 heartbeat IPC: 1.99261 cumulative IPC: 2.00469 (Simulation time: 0 hr 0 min 7 sec) 
Heartbeat CPU  0 instructions:    6000001 cycles:    2995911 heartbeat IPC: 1.99300 cumulative IPC: 2.00273 (Simulation time: 0 hr 0 min 8 sec) 
Heartbeat CPU  0 instructions:    7000000 cycles:    3482747 heartbeat IPC: 2.05408 cumulative IPC: 2.00991 (Simulation time: 0 hr 0 min 9 sec) 
Heartbeat CPU  0 instructions:    8000000 cycles:    3984499 heartbeat IPC: 1.99302 cumulative IPC: 2.00778 (Simulation time: 0 hr 0 min 11 sec) 
Heartbeat CPU  0 instructions:    9000001 cycles:    4485476 heartbeat IPC: 1.99610 cumulative IPC: 2.00648 (Simulation time: 0 hr 0 min 12 sec) 
Heartbeat CPU  0 instructions:   10000000 cycles:    4987174 heartbeat IPC: 1.99323 cumulative IPC: 2.00514 (Simulation time: 0 hr 0 min 14 sec) 
Heartbeat CPU  0 instructions:   11000001 cycles:    5481074 heartbeat IPC: 2.02470 cumulative IPC: 2.00691 (Simulation time: 0 hr 0 min 15 sec) 
Heartbeat CPU  0 instructions:   12000000 cycles:    5975818 heartbeat IPC: 2.02125 cumulative IPC: 2.00809 (Simulation time: 0 hr 0 min 16 sec) 
Heartbeat CPU  0 instructions:   13000003 cycles:    6477431 heartbeat IPC: 1.99357 cumulative IPC: 2.00697 (Simulation time: 0 hr 0 min 18 sec) 
Heartbeat CPU  0 instructions:   14000001 cycles:    6978824 heartbeat IPC: 1.99444 cumulative IPC: 2.00607 (Simulation time: 0 hr 0 min 19 sec) 
Heartbeat CPU  0 instructions:   15000003 cycles:    7480175 heartbeat IPC: 1.99461 cumulative IPC: 2.00530 (Simulation time: 0 hr 0 min 21 sec) 
Heartbeat CPU  0 instructions:   16000000 cycles:    7967347 heartbeat IPC: 2.05266 cumulative IPC: 2.00820 (Simulation time: 0 hr 0 min 22 sec) 
Heartbeat CPU  0 instructions:   17000001 cycles:    8469085 heartbeat IPC: 1.99307 cumulative IPC: 2.00730 (Simulation time: 0 hr 0 min 24 sec) 
Heartbeat CPU  0 instructions:   18000001 cycles:    8970431 heartbeat IPC: 1.99463 cumulative IPC: 2.00659 (Simulation time: 0 hr 0 min 25 sec) 
Heartbeat CPU  0 instructions:   19000003 cycles:    9471631 heartbeat IPC: 1.99522 cumulative IPC: 2.00599 (Simulation time: 0 hr 0 min 27 sec) 
Heartbeat CPU  0 instructions:   20000000 cycles:    9968205 heartbeat IPC: 2.01379 cumulative IPC: 2.00638 (Simulation time: 0 hr 0 min 28 sec) 
Heartbeat CPU  0 instructions:   21000001 cycles:   10460194 heartbeat IPC: 2.03257 cumulative IPC: 2.00761 (Simulation time: 0 hr 0 min 30 sec) 
Heartbeat CPU  0 instructions:   22000003 cycles:   10962034 heartbeat IPC: 1.99267 cumulative IPC: 2.00693 (Simulation time: 0 hr 0 min 31 sec) 
Heartbeat CPU  0 instructions:   23000001 cycles:   11464160 heartbeat IPC: 1.99153 cumulative IPC: 2.00625 (Simulation time: 0 hr 0 min 33 sec) 
Heartbeat CPU  0 instructions:   24000000 cycles:   11965702 heartbeat IPC: 1.99385 cumulative IPC: 2.00573 (Simulation time: 0 hr 0 min 34 sec) 
Heartbeat CPU  0 instructions:   25000003 cycles:   12452214 heartbeat IPC: 2.05545 cumulative IPC: 2.00768 (Simulation time: 0 hr 0 min 35 sec) 
Heartbeat CPU  0 instructions:   26000001 cycles:   12954061 heartbeat IPC: 1.99264 cumulative IPC: 2.00709 (Simulation time: 0 hr 0 min 37 sec) 
Heartbeat CPU  0 instructions:   27000003 cycles:   13456053 heartbeat IPC: 1.99207 cumulative IPC: 2.00653 (Simulation time: 0 hr 0 min 38 sec) 
Heartbeat CPU  0 instructions:   28000000 cycles:   13957908 heartbeat IPC: 1.99260 cumulative IPC: 2.00603 (Simulation time: 0 hr 0 min 40 sec) 
Heartbeat CPU  0 instructions:   29000002 cycles:   14455542 heartbeat IPC: 2.00951 cumulative IPC: 2.00615 (Simulation time: 0 hr 0 min 41 sec) 
Heartbeat CPU  0 instructions:   30000000 cycles:   14945891 heartbeat IPC: 2.03936 cumulative IPC: 2.00724 (Simulation time: 0 hr 0 min 42 sec) 
Heartbeat CPU  0 instructions:   31000002 cycles:   15447437 heartbeat IPC: 1.99384 cumulative IPC: 2.00681 (Simulation time: 0 hr 0 min 44 sec) 
Heartbeat CPU  0 instructions:   32000000 cycles:   15948880 heartbeat IPC: 1.99424 cumulative IPC: 2.00641 (Simulation time: 0 hr 0 min 45 sec) 
Heartbeat CPU  0 instructions:   33000001 cycles:   16450880 heartbeat IPC: 1.99203 cumulative IPC: 2.00597 (Simulation time: 0 hr 0 min 47 sec) 
Heartbeat CPU  0 instructions:   34000003 cycles:   16939654 heartbeat IPC: 2.04594 cumulative IPC: 2.00712 (Simulation time: 0 hr 0 min 48 sec) 
Heartbeat CPU  0 instructions:   35000000 cycles:   17438937 heartbeat IPC: 2.00287 cumulative IPC: 2.00700 (Simulation time: 0 hr 0 min 49 sec) 
Heartbeat CPU  0 instructions:   36000000 cycles:   17940200 heartbeat IPC: 1.99496 cumulative IPC: 2.00667 (Simulation time: 0 hr 0 min 51 sec) 
Heartbeat CPU  0 instructions:   37000003 cycles:   18441907 heartbeat IPC: 1.99320 cumulative IPC: 2.00630 (Simulation time: 0 hr 0 min 52 sec) 
Heartbeat CPU  0 instructions:   38000003 cycles:   18942735 heartbeat IPC: 1.99669 cumulative IPC: 2.00605 (Simulation time: 0 hr 0 min 53 sec) 
Heartbeat CPU  0 instructions:   39000003 cycles:   19430291 heartbeat IPC: 2.05105 cumulative IPC: 2.00718 (Simulation time: 0 hr 0 min 55 sec) 
Heartbeat CPU  0 instructions:   40000000 cycles:   19931382 heartbeat IPC: 1.99564 cumulative IPC: 2.00689 (Simulation time: 0 hr 0 min 56 sec) 
Heartbeat CPU  0 instructions:   41000001 cycles:   20433214 heartbeat IPC: 1.99270 cumulative IPC: 2.00654 (Simulation time: 0 hr 0 min 58 sec) 
Heartbeat CPU  0 instructions:   42000002 cycles:   20935113 heartbeat IPC: 1.99243 cumulative IPC: 2.00620 (Simulation time: 0 hr 0 min 59 sec) 
Heartbeat CPU  0 instructions:   43000003 cycles:   21426608 heartbeat IPC: 2.03461 cumulative IPC: 2.00685 (Simulation time: 0 hr 1 min 0 sec) 
Heartbeat CPU  0 instructions:   44000000 cycles:   21923510 heartbeat IPC: 2.01246 cumulative IPC: 2.00698 (Simulation time: 0 hr 1 min 2 sec) 
Heartbeat CPU  0 instructions:   45000001 cycles:   22425472 heartbeat IPC: 1.99218 cumulative IPC: 2.00665 (Simulation time: 0 hr 1 min 3 sec) 
Heartbeat CPU  0 instructions:   46000000 cycles:   22926890 heartbeat IPC: 1.99434 cumulative IPC: 2.00638 (Simulation time: 0 hr 1 min 5 sec) 
Heartbeat CPU  0 instructions:   47000002 cycles:   23428729 heartbeat IPC: 1.99267 cumulative IPC: 2.00608 (Simulation time: 0 hr 1 min 6 sec) 
Heartbeat CPU  0 instructions:   48000000 cycles:   23915340 heartbeat IPC: 2.05503 cumulative IPC: 2.00708 (Simulation time: 0 hr 1 min 7 sec) 
Heartbeat CPU  0 instructions:   49000002 cycles:   24417212 heartbeat IPC: 1.99254 cumulative IPC: 2.00678 (Simulation time: 0 hr 1 min 9 sec) 
Heartbeat CPU  0 instructions:   50000003 cycles:   24918575 heartbeat IPC: 1.99456 cumulative IPC: 2.00654 (Simulation time: 0 hr 1 min 10 sec) 
Heartbeat CPU  0 instructions:   51000003 cycles:   25419873 heartbeat IPC: 1.99482 cumulative IPC: 2.00630 (Simulation time: 0 hr 1 min 11 sec) 
Heartbeat CPU  0 instructions:   52000000 cycles:   25913378 heartbeat IPC: 2.02632 cumulative IPC: 2.00669 (Simulation time: 0 hr 1 min 13 sec) 
Heartbeat CPU  0 instructions:   53000001 cycles:   26408465 heartbeat IPC: 2.01985 cumulative IPC: 2.00693 (Simulation time: 0 hr 1 min 14 sec) 
Heartbeat CPU  0 instructions:   54000003 cycles:   26910122 heartbeat IPC: 1.99340 cumulative IPC: 2.00668 (Simulation time: 0 hr 1 min 16 sec) 
Heartbeat CPU  0 instructions:   55000003 cycles:   27411665 heartbeat IPC: 1.99385 cumulative IPC: 2.00645 (Simulation time: 0 hr 1 min 17 sec) 
Heartbeat CPU  0 instructions:   56000000 cycles:   27912874 heartbeat IPC: 1.99517 cumulative IPC: 2.00624 (Simulation time: 0 hr 1 min 18 sec) 
Heartbeat CPU  0 instructions:   57000002 cycles:   28399875 heartbeat IPC: 2.05339 cumulative IPC: 2.00705 (Simulation time: 0 hr 1 min 20 sec) 
Heartbeat CPU  0 instructions:   58000003 cycles:   28901423 heartbeat IPC: 1.99383 cumulative IPC: 2.00682 (Simulation time: 0 hr 1 min 21 sec) 
Heartbeat CPU  0 instructions:   59000001 cycles:   29403052 heartbeat IPC: 1.99350 cumulative IPC: 2.00659 (Simulation time: 0 hr 1 min 23 sec) 
Heartbeat CPU  0 instructions:   60000000 cycles:   29904179 heartbeat IPC: 1.99550 cumulative IPC: 2.00641 (Simulation time: 0 hr 1 min 24 sec) 
Heartbeat CPU  0 instructions:   61000000 cycles:   30400192 heartbeat IPC: 2.01608 cumulative IPC: 2.00657 (Simulation time: 0 hr 1 min 25 sec) 
Heartbeat CPU  0 instructions:   62000001 cycles:   30892493 heartbeat IPC: 2.03128 cumulative IPC: 2.00696 (Simulation time: 0 hr 1 min 27 sec) 
Heartbeat CPU  0 instructions:   63000001 cycles:   31394281 heartbeat IPC: 1.99287 cumulative IPC: 2.00673 (Simulation time: 0 hr 1 min 28 sec) 
Heartbeat CPU  0 instructions:   64000000 cycles:   31896340 heartbeat IPC: 1.99180 cumulative IPC: 2.00650 (Simulation time: 0 hr 1 min 29 sec) 
Heartbeat CPU  0 instructions:   65000000 cycles:   32398058 heartbeat IPC: 1.99315 cumulative IPC: 2.00629 (Simulation time: 0 hr 1 min 31 sec) 
Heartbeat CPU  0 instructions:   66000003 cycles:   32884289 heartbeat IPC: 2.05664 cumulative IPC: 2.00704 (Simulation time: 0 hr 1 min 32 sec) 
Heartbeat CPU  0 instructions:   67000000 cycles:   33386093 heartbeat IPC: 1.99280 cumulative IPC: 2.00682 (Simulation time: 0 hr 1 min 34 sec) 
Heartbeat CPU  0 instructions:   68000000 cycles:   33887882 heartbeat IPC: 1.99287 cumulative IPC: 2.00662 (Simulation time: 0 hr 1 min 35 sec) 
Heartbeat CPU  0 instructions:   69000001 cycles:   34389932 heartbeat IPC: 1.99184 cumulative IPC: 2.00640 (Simulation time: 0 hr 1 min 36 sec) 
Heartbeat CPU  0 instructions:   70000000 cycles:   34887253 heartbeat IPC: 2.01077 cumulative IPC: 2.00646 (Simulation time: 0 hr 1 min 38 sec) 
Heartbeat CPU  0 instructions:   71000001 cycles:   35377765 heartbeat IPC: 2.03869 cumulative IPC: 2.00691 (Simulation time: 0 hr 1 min 39 sec) 
Heartbeat CPU  0 instructions:   72000000 cycles:   35879664 heartbeat IPC: 1.99243 cumulative IPC: 2.00671 (Simulation time: 0 hr 1 min 41 sec) 
Heartbeat CPU  0 instructions:   73000002 cycles:   36380776 heartbeat IPC: 1.99557 cumulative IPC: 2.00655 (Simulation time: 0 hr 1 min 42 sec) 
Heartbeat CPU  0 instructions:   74000003 cycles:   36882567 heartbeat IPC: 1.99286 cumulative IPC: 2.00637 (Simulation time: 0 hr 1 min 44 sec) 
Heartbeat CPU  0 instructions:   75000001 cycles:   37371322 heartbeat IPC: 2.04601 cumulative IPC: 2.00689 (Simulation time: 0 hr 1 min 45 sec) 
Heartbeat CPU  0 instructions:   76000000 cycles:   37870701 heartbeat IPC: 2.00249 cumulative IPC: 2.00683 (Simulation time: 0 hr 1 min 46 sec) 
Heartbeat CPU  0 instructions:   77000000 cycles:   38372444 heartbeat IPC: 1.99305 cumulative IPC: 2.00665 (Simulation time: 0 hr 1 min 48 sec) 
Heartbeat CPU  0 instructions:   78000003 cycles:   38873928 heartbeat IPC: 1.99409 cumulative IPC: 2.00649 (Simulation time: 0 hr 1 min 49 sec) 
Heartbeat CPU  0 instructions:   79000001 cycles:   39374295 heartbeat IPC: 1.99853 cumulative IPC: 2.00639 (Simulation time: 0 hr 1 min 50 sec) 
Heartbeat CPU  0 instructions:   80000000 cycles:   39862821 heartbeat IPC: 2.04697 cumulative IPC: 2.00688 (Simulation time: 0 hr 1 min 52 sec) 
Heartbeat CPU  0 instructions:   81000003 cycles:   40363833 heartbeat IPC: 1.99597 cumulative IPC: 2.00675 (Simulation time: 0 hr 1 min 53 sec) 
Heartbeat CPU  0 instructions:   82000003 cycles:   40865374 heartbeat IPC: 1.99385 cumulative IPC: 2.00659 (Simulation time: 0 hr 1 min 55 sec) 
Heartbeat CPU  0 instructions:   83000001 cycles:   41367046 heartbeat IPC: 1.99333 cumulative IPC: 2.00643 (Simulation time: 0 hr 1 min 56 sec) 
Heartbeat CPU  0 instructions:   84000000 cycles:   41858278 heartbeat IPC: 2.03570 cumulative IPC: 2.00677 (Simulation time: 0 hr 1 min 57 sec) 
Heartbeat CPU  0 instructions:   85000002 cycles:   42355760 heartbeat IPC: 2.01013 cumulative IPC: 2.00681 (Simulation time: 0 hr 1 min 59 sec) 
Heartbeat CPU  0 instructions:   86000002 cycles:   42857676 heartbeat IPC: 1.99237 cumulative IPC: 2.00664 (Simulation time: 0 hr 2 min 0 sec) 
Heartbeat CPU  0 instructions:   87000002 cycles:   43359215 heartbeat IPC: 1.99386 cumulative IPC: 2.00649 (Simulation time: 0 hr 2 min 1 sec) 
Heartbeat CPU  0 instructions:   88000000 cycles:   43861105 heartbeat IPC: 1.99246 cumulative IPC: 2.00633 (Simulation time: 0 hr 2 min 3 sec) 
Heartbeat CPU  0 instructions:   89000003 cycles:   44347803 heartbeat IPC: 2.05467 cumulative IPC: 2.00686 (Simulation time: 0 hr 2 min 4 sec) 
Heartbeat CPU  0 instructions:   90000002 cycles:   44849844 heartbeat IPC: 1.99187 cumulative IPC: 2.00670 (Simulation time: 0 hr 2 min 6 sec) 
Heartbeat CPU  0 instructions:   91000000 cycles:   45351238 heartbeat IPC: 1.99444 cumulative IPC: 2.00656 (Simulation time: 0 hr 2 min 7 sec) 
Heartbeat CPU  0 instructions:   92000000 cycles:   45852898 heartbeat IPC: 1.99338 cumulative IPC: 2.00642 (Simulation time: 0 hr 2 min 8 sec) 
Heartbeat CPU  0 instructions:   93000002 cycles:   46345722 heartbeat IPC: 2.02913 cumulative IPC: 2.00666 (Simulation time: 0 hr 2 min 10 sec) 
Heartbeat CPU  0 instructions:   94000003 cycles:   46841476 heartbeat IPC: 2.01713 cumulative IPC: 2.00677 (Simulation time: 0 hr 2 min 11 sec) 
Heartbeat CPU  0 instructions:   95000003 cycles:   47343062 heartbeat IPC: 1.99368 cumulative IPC: 2.00663 (Simulation time: 0 hr 2 min 12 sec) 
Heartbeat CPU  0 instructions:   96000000 cycles:   47844700 heartbeat IPC: 1.99346 cumulative IPC: 2.00649 (Simulation time: 0 hr 2 min 14 sec) 
Heartbeat CPU  0 instructions:   97000000 cycles:   48346049 heartbeat IPC: 1.99462 cumulative IPC: 2.00637 (Simulation time: 0 hr 2 min 15 sec) 
Heartbeat CPU  0 instructions:   98000000 cycles:   48832762 heartbeat IPC: 2.05460 cumulative IPC: 2.00685 (Simulation time: 0 hr 2 min 17 sec) 
Heartbeat CPU  0 instructions:   99000002 cycles:   49334397 heartbeat IPC: 1.99349 cumulative IPC: 2.00671 (Simulation time: 0 hr 2 min 18 sec) 
Heartbeat CPU  0 instructions:  100000000 cycles:   49835985 heartbeat IPC: 1.99366 cumulative IPC: 2.00658 (Simulation time: 0 hr 2 min 19 sec) 

Warmup complete CPU  0 instructions:  100000003 cycles:   49835986 (Simulation time: 0 hr 2 min 19 sec) 

Heartbeat CPU  0 instructions:  101000001 cycles:   50661751 heartbeat IPC: 1.21100 cumulative IPC: 1.21100 (Simulation time: 0 hr 2 min 21 sec) 
Heartbeat CPU  0 instructions:  102000002 cycles:   51494962 heartbeat IPC: 1.20018 cumulative IPC: 1.20556 (Simulation time: 0 hr 2 min 23 sec) 
Heartbeat CPU  0 instructions:  103000001 cycles:   52338201 heartbeat IPC: 1.18590 cumulative IPC: 1.19894 (Simulation time: 0 hr 2 min 24 sec) 
Heartbeat CPU  0 instructions:  104000000 cycles:   53176310 heartbeat IPC: 1.19316 cumulative IPC: 1.19749 (Simulation time: 0 hr 2 min 26 sec) 
Heartbeat CPU  0 instructions:  105000003 cycles:   53994538 heartbeat IPC: 1.22216 cumulative IPC: 1.20234 (Simulation time: 0 hr 2 min 27 sec) 
Heartbeat CPU  0 instructions:  106000001 cycles:   54817298 heartbeat IPC: 1.21542 cumulative IPC: 1.20450 (Simulation time: 0 hr 2 min 29 sec) 
Heartbeat CPU  0 instructions:  107000002 cycles:   55657481 heartbeat IPC: 1.19022 cumulative IPC: 1.20244 (Simulation time: 0 hr 2 min 31 sec) 
Heartbeat CPU  0 instructions:  108000000 cycles:   56491740 heartbeat IPC: 1.19867 cumulative IPC: 1.20197 (Simulation time: 0 hr 2 min 32 sec) 
Heartbeat CPU  0 instructions:  109000003 cycles:   57327070 heartbeat IPC: 1.19714 cumulative IPC: 1.20143 (Simulation time: 0 hr 2 min 34 sec) 
Heartbeat CPU  0 instructions:  110000001 cycles:   58151186 heartbeat IPC: 1.21342 cumulative IPC: 1.20262 (Simulation time: 0 hr 2 min 35 sec) 
Heartbeat CPU  0 instructions:  111000003 cycles:   58971036 heartbeat IPC: 1.21974 cumulative IPC: 1.20415 (Simulation time: 0 hr 2 min 37 sec) 
Heartbeat CPU  0 instructions:  112000000 cycles:   59809538 heartbeat IPC: 1.19260 cumulative IPC: 1.20318 (Simulation time: 0 hr 2 min 38 sec) 
Heartbeat CPU  0 instructions:  113000002 cycles:   60643128 heartbeat IPC: 1.19963 cumulative IPC: 1.20291 (Simulation time: 0 hr 2 min 40 sec) 
Heartbeat CPU  0 instructions:  114000002 cycles:   61476793 heartbeat IPC: 1.19952 cumulative IPC: 1.20267 (Simulation time: 0 hr 2 min 41 sec) 
Heartbeat CPU  0 instructions:  115000000 cycles:   62307095 heartbeat IPC: 1.20438 cumulative IPC: 1.20278 (Simulation time: 0 hr 2 min 43 sec) 
Heartbeat CPU  0 instructions:  116000000 cycles:   63137868 heartbeat IPC: 1.20370 cumulative IPC: 1.20284 (Simulation time: 0 hr 2 min 44 sec) 
Heartbeat CPU  0 instructions:  117000002 cycles:   63967121 heartbeat IPC: 1.20591 cumulative IPC: 1.20302 (Simulation time: 0 hr 2 min 46 sec) 
Heartbeat CPU  0 instructions:  118000001 cycles:   64797671 heartbeat IPC: 1.20402 cumulative IPC: 1.20307 (Simulation time: 0 hr 2 min 47 sec) 
Heartbeat CPU  0 instructions:  119000002 cycles:   65632156 heartbeat IPC: 1.19835 cumulative IPC: 1.20282 (Simulation time: 0 hr 2 min 49 sec) 
Heartbeat CPU  0 instructions:  120000000 cycles:   66468224 heartbeat IPC: 1.19607 cumulative IPC: 1.20248 (Simulation time: 0 hr 2 min 51 sec) 
Heartbeat CPU  0 instructions:  121000001 cycles:   67296157 heartbeat IPC: 1.20783 cumulative IPC: 1.20274 (Simulation time: 0 hr 2 min 52 sec) 
Heartbeat CPU  0 instructions:  122000002 cycles:   68122582 heartbeat IPC: 1.21003 cumulative IPC: 1.20307 (Simulation time: 0 hr 2 min 54 sec) 
Heartbeat CPU  0 instructions:  123000000 cycles:   68951057 heartbeat IPC: 1.20703 cumulative IPC: 1.20324 (Simulation time: 0 hr 2 min 55 sec) 
Heartbeat CPU  0 instructions:  124000000 cycles:   69788107 heartbeat IPC: 1.19467 cumulative IPC: 1.20288 (Simulation time: 0 hr 2 min 57 sec) 
Heartbeat CPU  0 instructions:  125000000 cycles:   70633596 heartbeat IPC: 1.18275 cumulative IPC: 1.20206 (Simulation time: 0 hr 2 min 58 sec) 
Heartbeat CPU  0 instructions:  126000000 cycles:   71451843 heartbeat IPC: 1.22212 cumulative IPC: 1.20282 (Simulation time: 0 hr 3 min 0 sec) 
Heartbeat CPU  0 instructions:  127000000 cycles:   72276219 heartbeat IPC: 1.21304 cumulative IPC: 1.20320 (Simulation time: 0 hr 3 min 2 sec) 
Heartbeat CPU  0 instructions:  128000000 cycles:   73102727 heartbeat IPC: 1.20991 cumulative IPC: 1.20343 (Simulation time: 0 hr 3 min 3 sec) 
Heartbeat CPU  0 instructions:  129000002 cycles:   73935762 heartbeat IPC: 1.20043 cumulative IPC: 1.20333 (Simulation time: 0 hr 3 min 5 sec) 
Heartbeat CPU  0 instructions:  130000002 cycles:   74786807 heartbeat IPC: 1.17503 cumulative IPC: 1.20237 (Simulation time: 0 hr 3 min 6 sec) 
Heartbeat CPU  0 instructions:  131000002 cycles:   75605413 heartbeat IPC: 1.22159 cumulative IPC: 1.20298 (Simulation time: 0 hr 3 min 8 sec) 
Heartbeat CPU  0 instructions:  132000000 cycles:   76426739 heartbeat IPC: 1.21754 cumulative IPC: 1.20343 (Simulation time: 0 hr 3 min 9 sec) 
Heartbeat CPU  0 instructions:  133000000 cycles:   77252171 heartbeat IPC: 1.21149 cumulative IPC: 1.20367 (Simulation time: 0 hr 3 min 11 sec) 
Heartbeat CPU  0 instructions:  134000000 cycles:   78092165 heartbeat IPC: 1.19048 cumulative IPC: 1.20328 (Simulation time: 0 hr 3 min 12 sec) 
Heartbeat CPU  0 instructions:  135000002 cycles:   78936796 heartbeat IPC: 1.18395 cumulative IPC: 1.20272 (Simulation time: 0 hr 3 min 14 sec) 
Heartbeat CPU  0 instructions:  136000000 cycles:   79755745 heartbeat IPC: 1.22107 cumulative IPC: 1.20322 (Simulation time: 0 hr 3 min 15 sec) 
Heartbeat CPU  0 instructions:  137000001 cycles:   80576185 heartbeat IPC: 1.21886 cumulative IPC: 1.20364 (Simulation time: 0 hr 3 min 17 sec) 
Heartbeat CPU  0 instructions:  138000003 cycles:   81402266 heartbeat IPC: 1.21054 cumulative IPC: 1.20382 (Simulation time: 0 hr 3 min 19 sec) 
Heartbeat CPU  0 instructions:  139000003 cycles:   82241383 heartbeat IPC: 1.19173 cumulative IPC: 1.20350 (Simulation time: 0 hr 3 min 20 sec) 
Heartbeat CPU  0 instructions:  140000000 cycles:   83083222 heartbeat IPC: 1.18787 cumulative IPC: 1.20311 (Simulation time: 0 hr 3 min 22 sec) 
Heartbeat CPU  0 instructions:  141000003 cycles:   83906178 heartbeat IPC: 1.21514 cumulative IPC: 1.20340 (Simulation time: 0 hr 3 min 23 sec) 
Heartbeat CPU  0 instructions:  142000000 cycles:   84725283 heartbeat IPC: 1.22084 cumulative IPC: 1.20381 (Simulation time: 0 hr 3 min 25 sec) 
Heartbeat CPU  0 instructions:  143000000 cycles:   85553917 heartbeat IPC: 1.20681 cumulative IPC: 1.20388 (Simulation time: 0 hr 3 min 26 sec) 
Heartbeat CPU  0 instructions:  144000000 cycles:   86389506 heartbeat IPC: 1.19676 cumulative IPC: 1.20371 (Simulation time: 0 hr 3 min 28 sec) 
Heartbeat CPU  0 instructions:  145000002 cycles:   87230454 heartbeat IPC: 1.18914 cumulative IPC: 1.20339 (Simulation time: 0 hr 3 min 29 sec) 
Heartbeat CPU  0 instructions:  146000002 cycles:   88063819 heartbeat IPC: 1.19995 cumulative IPC: 1.20331 (Simulation time: 0 hr 3 min 31 sec) 
Heartbeat CPU  0 instructions:  147000002 cycles:   88942070 heartbeat IPC: 1.13863 cumulative IPC: 1.20186 (Simulation time: 0 hr 3 min 33 sec) 
Heartbeat CPU  0 instructions:  148000000 cycles:   90111093 heartbeat IPC: 0.85541 cumulative IPC: 1.19180 (Simulation time: 0 hr 3 min 34 sec) 
Heartbeat CPU  0 instructions:  149000002 cycles:   91285516 heartbeat IPC: 0.85148 cumulative IPC: 1.18216 (Simulation time: 0 hr 3 min 36 sec) 
Heartbeat CPU  0 instructions:  150000002 cycles:   92471501 heartbeat IPC: 0.84318 cumulative IPC: 1.17273 (Simulation time: 0 hr 3 min 37 sec) 
Heartbeat CPU  0 instructions:  151000000 cycles:   93642778 heartbeat IPC: 0.85377 cumulative IPC: 1.16420 (Simulation time: 0 hr 3 min 39 sec) 
Heartbeat CPU  0 instructions:  152000000 cycles:   94821749 heartbeat IPC: 0.84820 cumulative IPC: 1.15592 (Simulation time: 0 hr 3 min 41 sec) 
Heartbeat CPU  0 instructions:  153000003 cycles:   96002880 heartbeat IPC: 0.84665 cumulative IPC: 1.14801 (Simulation time: 0 hr 3 min 42 sec) 
Heartbeat CPU  0 instructions:  154000002 cycles:   97179272 heartbeat IPC: 0.85006 cumulative IPC: 1.14061 (Simulation time: 0 hr 3 min 44 sec) 
Heartbeat CPU  0 instructions:  155000003 cycles:   98355244 heartbeat IPC: 0.85036 cumulative IPC: 1.13357 (Simulation time: 0 hr 3 min 46 sec) 
Heartbeat CPU  0 instructions:  156000000 cycles:   99529754 heartbeat IPC: 0.85142 cumulative IPC: 1.12690 (Simulation time: 0 hr 3 min 47 sec) 
Heartbeat CPU  0 instructions:  157000003 cycles:  100709353 heartbeat IPC: 0.84775 cumulative IPC: 1.12043 (Simulation time: 0 hr 3 min 49 sec) 
Heartbeat CPU  0 instructions:  158000000 cycles:  101884598 heartbeat IPC: 0.85088 cumulative IPC: 1.11434 (Simulation time: 0 hr 3 min 51 sec) 
Heartbeat CPU  0 instructions:  159000003 cycles:  103067813 heartbeat IPC: 0.84516 cumulative IPC: 1.10836 (Simulation time: 0 hr 3 min 52 sec) 
Heartbeat CPU  0 instructions:  160000000 cycles:  104254937 heartbeat IPC: 0.84237 cumulative IPC: 1.10256 (Simulation time: 0 hr 3 min 54 sec) 
Heartbeat CPU  0 instructions:  161000000 cycles:  105434430 heartbeat IPC: 0.84782 cumulative IPC: 1.09715 (Simulation time: 0 hr 3 min 56 sec) 
Heartbeat CPU  0 instructions:  162000000 cycles:  106626404 heartbeat IPC: 0.83894 cumulative IPC: 1.09173 (Simulation time: 0 hr 3 min 57 sec) 
Heartbeat CPU  0 instructions:  163000002 cycles:  107821944 heartbeat IPC: 0.83644 cumulative IPC: 1.08647 (Simulation time: 0 hr 3 min 59 sec) 
Heartbeat CPU  0 instructions:  164000000 cycles:  108987817 heartbeat IPC: 0.85772 cumulative IPC: 1.08196 (Simulation time: 0 hr 4 min 1 sec) 
Heartbeat CPU  0 instructions:  165000001 cycles:  110163091 heartbeat IPC: 0.85087 cumulative IPC: 1.07746 (Simulation time: 0 hr 4 min 2 sec) 
Heartbeat CPU  0 instructions:  166000001 cycles:  111346860 heartbeat IPC: 0.84476 cumulative IPC: 1.07298 (Simulation time: 0 hr 4 min 4 sec) 
Heartbeat CPU  0 instructions:  167000001 cycles:  112519707 heartbeat IPC: 0.85263 cumulative IPC: 1.06886 (Simulation time: 0 hr 4 min 6 sec) 
Heartbeat CPU  0 instructions:  168000000 cycles:  113707246 heartbeat IPC: 0.84208 cumulative IPC: 1.06464 (Simulation time: 0 hr 4 min 7 sec) 
Heartbeat CPU  0 instructions:  169000002 cycles:  114888416 heartbeat IPC: 0.84662 cumulative IPC: 1.06068 (Simulation time: 0 hr 4 min 9 sec) 
Heartbeat CPU  0 instructions:  170000002 cycles:  116067111 heartbeat IPC: 0.84840 cumulative IPC: 1.05690 (Simulation time: 0 hr 4 min 11 sec) 
Heartbeat CPU  0 instructions:  171000002 cycles:  117244875 heartbeat IPC: 0.84907 cumulative IPC: 1.05327 (Simulation time: 0 hr 4 min 12 sec) 
Heartbeat CPU  0 instructions:  172000000 cycles:  118422725 heartbeat IPC: 0.84900 cumulative IPC: 1.04977 (Simulation time: 0 hr 4 min 14 sec) 
Heartbeat CPU  0 instructions:  173000002 cycles:  119601837 heartbeat IPC: 0.84810 cumulative IPC: 1.04636 (Simulation time: 0 hr 4 min 16 sec) 
Heartbeat CPU  0 instructions:  174000003 cycles:  120784305 heartbeat IPC: 0.84569 cumulative IPC: 1.04301 (Simulation time: 0 hr 4 min 18 sec) 
Heartbeat CPU  0 instructions:  175000002 cycles:  121972995 heartbeat IPC: 0.84126 cumulative IPC: 1.03969 (Simulation time: 0 hr 4 min 19 sec) 
Heartbeat CPU  0 instructions:  176000000 cycles:  123152914 heartbeat IPC: 0.84751 cumulative IPC: 1.03660 (Simulation time: 0 hr 4 min 21 sec) 
Heartbeat CPU  0 instructions:  177000003 cycles:  124344854 heartbeat IPC: 0.83897 cumulative IPC: 1.03343 (Simulation time: 0 hr 4 min 23 sec) 
Heartbeat CPU  0 instructions:  178000000 cycles:  125527622 heartbeat IPC: 0.84547 cumulative IPC: 1.03050 (Simulation time: 0 hr 4 min 24 sec) 
Heartbeat CPU  0 instructions:  179000002 cycles:  126712401 heartbeat IPC: 0.84404 cumulative IPC: 1.02762 (Simulation time: 0 hr 4 min 26 sec) 
Heartbeat CPU  0 instructions:  180000000 cycles:  127893364 heartbeat IPC: 0.84676 cumulative IPC: 1.02489 (Simulation time: 0 hr 4 min 28 sec) 
Heartbeat CPU  0 instructions:  181000003 cycles:  129072846 heartbeat IPC: 0.84783 cumulative IPC: 1.02225 (Simulation time: 0 hr 4 min 29 sec) 
Heartbeat CPU  0 instructions:  182000002 cycles:  130252526 heartbeat IPC: 0.84769 cumulative IPC: 1.01969 (Simulation time: 0 hr 4 min 31 sec) 
Heartbeat CPU  0 instructions:  183000000 cycles:  131423312 heartbeat IPC: 0.85413 cumulative IPC: 1.01731 (Simulation time: 0 hr 4 min 33 sec) 
Heartbeat CPU  0 instructions:  184000000 cycles:  132598232 heartbeat IPC: 0.85112 cumulative IPC: 1.01496 (Simulation time: 0 hr 4 min 34 sec) 
Heartbeat CPU  0 instructions:  185000003 cycles:  133772680 heartbeat IPC: 0.85147 cumulative IPC: 1.01267 (Simulation time: 0 hr 4 min 36 sec) 
Heartbeat CPU  0 instructions:  186000001 cycles:  134947720 heartbeat IPC: 0.85103 cumulative IPC: 1.01044 (Simulation time: 0 hr 4 min 38 sec) 
Heartbeat CPU  0 instructions:  187000002 cycles:  136133423 heartbeat IPC: 0.84338 cumulative IPC: 1.00814 (Simulation time: 0 hr 4 min 39 sec) 
Heartbeat CPU  0 instructions:  188000000 cycles:  137311753 heartbeat IPC: 0.84866 cumulative IPC: 1.00599 (Simulation time: 0 hr 4 min 41 sec) 
Heartbeat CPU  0 instructions:  189000001 cycles:  138494249 heartbeat IPC: 0.84567 cumulative IPC: 1.00385 (Simulation time: 0 hr 4 min 43 sec) 
Heartbeat CPU  0 instructions:  190000003 cycles:  139675713 heartbeat IPC: 0.84641 cumulative IPC: 1.00178 (Simulation time: 0 hr 4 min 44 sec) 
Heartbeat CPU  0 instructions:  191000002 cycles:  140856451 heartbeat IPC: 0.84693 cumulative IPC: 0.99978 (Simulation time: 0 hr 4 min 46 sec) 
Heartbeat CPU  0 instructions:  192000000 cycles:  142013681 heartbeat IPC: 0.86413 cumulative IPC: 0.99807 (Simulation time: 0 hr 4 min 48 sec) 
Heartbeat CPU  0 instructions:  193000003 cycles:  142915819 heartbeat IPC: 1.10848 cumulative IPC: 0.99914 (Simulation time: 0 hr 4 min 50 sec) 
Heartbeat CPU  0 instructions:  194000000 cycles:  147210176 heartbeat IPC: 0.23286 cumulative IPC: 0.96535 (Simulation time: 0 hr 4 min 53 sec) 
Heartbeat CPU  0 instructions:  195000000 cycles:  150744179 heartbeat IPC: 0.28297 cumulative IPC: 0.94145 (Simulation time: 0 hr 4 min 56 sec) 
Heartbeat CPU  0 instructions:  196000000 cycles:  151450536 heartbeat IPC: 1.41571 cumulative IPC: 0.94475 (Simulation time: 0 hr 4 min 57 sec) 
Heartbeat CPU  0 instructions:  197000000 cycles:  152157740 heartbeat IPC: 1.41402 cumulative IPC: 0.94799 (Simulation time: 0 hr 4 min 59 sec) 
Heartbeat CPU  0 instructions:  198000003 cycles:  152863487 heartbeat IPC: 1.41694 cumulative IPC: 0.95120 (Simulation time: 0 hr 5 min 0 sec) 
Heartbeat CPU  0 instructions:  199000002 cycles:  153575963 heartbeat IPC: 1.40355 cumulative IPC: 0.95431 (Simulation time: 0 hr 5 min 2 sec) 
Heartbeat CPU  0 instructions:  200000000 cycles:  154285082 heartbeat IPC: 1.41020 cumulative IPC: 0.95740 (Simulation time: 0 hr 5 min 3 sec) 
Finished CPU 0 instructions: 100000000 cycles: 104449125 cumulative IPC: 0.95740 (Simulation time: 0 hr 5 min 3 sec) 

ChampSim completed all CPUs

[ROI Statistics]
Core_0_instructions 100000000
Core_0_cycles 104449125
Core_0_IPC 0.95740

Core_0_branch_prediction_accuracy 99.15344
Core_0_branch_MPKI 0.35029
Core_0_average_ROB_occupancy_at_mispredict 249.75015

Core_0_L1D_total_access 49699387
Core_0_L1D_total_hit 47722157
Core_0_L1D_total_miss 1977230
Core_0_L1D_loads 23361032
Core_0_L1D_load_hit 22800008
Core_0_L1D_load_miss 561024
Core_0_L1D_RFOs 4511703
Core_0_L1D_RFO_hit 4196868
Core_0_L1D_RFO_miss 314835
Core_0_L1D_prefetches 21826652
Core_0_L1D_prefetch_hit 20725281
Core_0_L1D_prefetch_miss 1101371
Core_0_L1D_writebacks 0
Core_0_L1D_writeback_hit 0
Core_0_L1D_writeback_miss 0
Core_0_L1D_prefetch_requested 59236780
Core_0_L1D_prefetch_issued 57162665
Core_0_L1D_prefetch_useful 1623699
Core_0_L1D_prefetch_useless 1189997
Core_0_L1D_prefetch_late 163717
Core_0_L1D_average_miss_latency 9157933.56146

Core_0_L1I_total_access 22673904
Core_0_L1I_total_hit 22673684
Core_0_L1I_total_miss 220
Core_0_L1I_loads 22673904
Core_0_L1I_load_hit 22673684
Core_0_L1I_load_miss 220
Core_0_L1I_RFOs 0
Core_0_L1I_RFO_hit 0
Core_0_L1I_RFO_miss 0
Core_0_L1I_prefetches 0
Core_0_L1I_prefetch_hit 0
Core_0_L1I_prefetch_miss 0
Core_0_L1I_writebacks 0
Core_0_L1I_writeback_hit 0
Core_0_L1I_writeback_miss 0
Core_0_L1I_prefetch_requested 0
Core_0_L1I_prefetch_issued 0
Core_0_L1I_prefetch_useful 0
Core_0_L1I_prefetch_useless 0
Core_0_L1I_prefetch_late 0
Core_0_L1I_average_miss_latency 181.55000

Core_0_L2C_total_access 3661312
Core_0_L2C_total_hit 2561808
Core_0_L2C_total_miss 1099504
Core_0_L2C_loads 399157
Core_0_L2C_load_hit 333289
Core_0_L2C_load_miss 65868
Core_0_L2C_RFOs 314687
Core_0_L2C_RFO_hit 129350
Core_0_L2C_RFO_miss 185337
Core_0_L2C_prefetches 2388523
Core_0_L2C_prefetch_hit 1540336
Core_0_L2C_prefetch_miss 848187
Core_0_L2C_writebacks 558945
Core_0_L2C_writeback_hit 558833
Core_0_L2C_writeback_miss 112
Core_0_L2C_prefetch_requested 4030504
Core_0_L2C_prefetch_issued 3971039
Core_0_L2C_prefetch_useful 163941
Core_0_L2C_prefetch_useless 1206707
Core_0_L2C_prefetch_late 2794
Core_0_L2C_average_miss_latency 178.37129

Core_0_LLC_total_access 1992418
Core_0_LLC_total_hit 958045
Core_0_LLC_total_miss 1034373
Core_0_LLC_loads 63079
Core_0_LLC_load_hit 17663
Core_0_LLC_load_miss 45416
Core_0_LLC_RFOs 185335
Core_0_LLC_RFO_hit 16662
Core_0_LLC_RFO_miss 168673
Core_0_LLC_prefetches 1336404
Core_0_LLC_prefetch_hit 517387
Core_0_LLC_prefetch_miss 819017
Core_0_LLC_writebacks 407600
Core_0_LLC_writeback_hit 406333
Core_0_LLC_writeback_miss 1267
Core_0_LLC_prefetch_requested 1338087
Core_0_LLC_prefetch_issued 1316995
Core_0_LLC_prefetch_useful 42902
Core_0_LLC_prefetch_useless 1113985
Core_0_LLC_prefetch_late 518
Core_0_LLC_average_miss_latency 271.82974

Core_0_major_page_fault 0
Core_0_minor_page_fault 15627

CPU 0 L1D next line prefetcher final stats
CPU 0 L2C next line prefetcher final stats
LLC Next Line Prefetcher Final Stats: none
Channel_0_RQ_row_buffer_hit 357931
Channel_0_RQ_row_buffer_miss 675172
Channel_0_WQ_row_buffer_hit 111709
Channel_0_WQ_row_buffer_miss 274388
Channel_0_WQ_full 0
Channel_0_dbus_congested 502975

avg_congested_cycle 9
