*************************************************
   ChampSim Multicore Out-of-Order Simulator
   Last compiled: Dec 23 2023 15:35:07
*************************************************

trace_0 ./test_trace/437.leslie3d-134B.champsimtrace.xz
CPU 0 L1D next line prefetcher
CPU 0 L2C IP-based stride prefetcher
Initialize DRRIP state
Assign rand_sets[0]: 454  LLC: 2048
rand_sets[0]: 454
Assign rand_sets[1]: 1662  LLC: 2048
rand_sets[1]: 1662
Assign rand_sets[2]: 1921  LLC: 2048
rand_sets[2]: 1921
Assign rand_sets[3]: 1131  LLC: 2048
rand_sets[3]: 1131
Assign rand_sets[4]: 331  LLC: 2048
rand_sets[4]: 331
Assign rand_sets[5]: 1531  LLC: 2048
rand_sets[5]: 1531
Assign rand_sets[6]: 482  LLC: 2048
rand_sets[6]: 482
Assign rand_sets[7]: 1275  LLC: 2048
rand_sets[7]: 1275
Assign rand_sets[8]: 1876  LLC: 2048
rand_sets[8]: 1876
Assign rand_sets[9]: 2038  LLC: 2048
rand_sets[9]: 2038
Assign rand_sets[10]: 701  LLC: 2048
rand_sets[10]: 701
Assign rand_sets[11]: 479  LLC: 2048
rand_sets[11]: 479
Assign rand_sets[12]: 892  LLC: 2048
rand_sets[12]: 892
Assign rand_sets[13]: 1820  LLC: 2048
rand_sets[13]: 1820
Assign rand_sets[14]: 1505  LLC: 2048
rand_sets[14]: 1505
Assign rand_sets[15]: 1159  LLC: 2048
rand_sets[15]: 1159
Assign rand_sets[16]: 513  LLC: 2048
rand_sets[16]: 513
Assign rand_sets[17]: 703  LLC: 2048
rand_sets[17]: 703
Assign rand_sets[18]: 561  LLC: 2048
rand_sets[18]: 561
Assign rand_sets[19]: 990  LLC: 2048
rand_sets[19]: 990
Assign rand_sets[20]: 342  LLC: 2048
rand_sets[20]: 342
Assign rand_sets[21]: 882  LLC: 2048
rand_sets[21]: 882
Assign rand_sets[22]: 15  LLC: 2048
rand_sets[22]: 15
Assign rand_sets[23]: 71  LLC: 2048
rand_sets[23]: 71
Assign rand_sets[24]: 1127  LLC: 2048
rand_sets[24]: 1127
Assign rand_sets[25]: 1382  LLC: 2048
rand_sets[25]: 1382
Assign rand_sets[26]: 647  LLC: 2048
rand_sets[26]: 647
Assign rand_sets[27]: 857  LLC: 2048
rand_sets[27]: 857
Assign rand_sets[28]: 1450  LLC: 2048
rand_sets[28]: 1450
Assign rand_sets[29]: 1160  LLC: 2048
rand_sets[29]: 1160
Assign rand_sets[30]: 1852  LLC: 2048
rand_sets[30]: 1852
Assign rand_sets[31]: 1881  LLC: 2048
rand_sets[31]: 1881
Assign rand_sets[32]: 1770  LLC: 2048
rand_sets[32]: 1770
Assign rand_sets[33]: 1622  LLC: 2048
rand_sets[33]: 1622
Assign rand_sets[34]: 275  LLC: 2048
rand_sets[34]: 275
Assign rand_sets[35]: 635  LLC: 2048
rand_sets[35]: 635
Assign rand_sets[36]: 466  LLC: 2048
rand_sets[36]: 466
Assign rand_sets[37]: 1413  LLC: 2048
rand_sets[37]: 1413
Assign rand_sets[38]: 417  LLC: 2048
rand_sets[38]: 417
Assign rand_sets[39]: 472  LLC: 2048
rand_sets[39]: 472
Assign rand_sets[40]: 1340  LLC: 2048
rand_sets[40]: 1340
Assign rand_sets[41]: 852  LLC: 2048
rand_sets[41]: 852
Assign rand_sets[42]: 1365  LLC: 2048
rand_sets[42]: 1365
Assign rand_sets[43]: 47  LLC: 2048
rand_sets[43]: 47
Assign rand_sets[44]: 823  LLC: 2048
rand_sets[44]: 823
Assign rand_sets[45]: 686  LLC: 2048
rand_sets[45]: 686
Assign rand_sets[46]: 1637  LLC: 2048
rand_sets[46]: 1637
Assign rand_sets[47]: 1115  LLC: 2048
rand_sets[47]: 1115
Assign rand_sets[48]: 986  LLC: 2048
rand_sets[48]: 986
Assign rand_sets[49]: 258  LLC: 2048
rand_sets[49]: 258
Assign rand_sets[50]: 633  LLC: 2048
rand_sets[50]: 633
Assign rand_sets[51]: 920  LLC: 2048
rand_sets[51]: 920
Assign rand_sets[52]: 204  LLC: 2048
rand_sets[52]: 204
Assign rand_sets[53]: 227  LLC: 2048
rand_sets[53]: 227
Assign rand_sets[54]: 1818  LLC: 2048
rand_sets[54]: 1818
Assign rand_sets[55]: 886  LLC: 2048
rand_sets[55]: 886
Assign rand_sets[56]: 1422  LLC: 2048
rand_sets[56]: 1422
Assign rand_sets[57]: 607  LLC: 2048
rand_sets[57]: 607
Assign rand_sets[58]: 217  LLC: 2048
rand_sets[58]: 217
Assign rand_sets[59]: 1945  LLC: 2048
rand_sets[59]: 1945
Assign rand_sets[60]: 143  LLC: 2048
rand_sets[60]: 143
Assign rand_sets[61]: 1311  LLC: 2048
rand_sets[61]: 1311
Assign rand_sets[62]: 319  LLC: 2048
rand_sets[62]: 319
Assign rand_sets[63]: 1846  LLC: 2048
rand_sets[63]: 1846
warmup_instructions 100000000
simulation_instructions 100000000
champsim_seed 218

num_cpus 1
cpu_freq 4000
dram_io_freq 2400
page_size 4096
block_size 64
max_read_per_cycle 8
max_fill_per_cycle 1
dram_channels 1
dram_ranks 1
dram_banks 8
dram_rows 65536
dram_columns 128
dram_row_size 8
dram_size 4096
dram_pages 1048576

fetch_width 6
decode_width 6
exec_width 4
lq_width 2
sq_width 2
retire_width 4
scheduler_size 128
branch_mispredict_penalty 20
rob_size 256
lq_size 72
sq_size 56
num_instr_destinations_sparc 4
num_instr_destinations 2
num_instr_sources 4

itlb_set 16
itlb_way 8
itlb_rq_size 16
itlb_wq_size 16
itlb_pq_size 0
itlb_mshr_size 8
itlb_latency 1

dtlb_set 16
dtlb_way 4
dtlb_rq_size 16
dtlb_wq_size 16
dtlb_pq_size 0
dtlb_mshr_size 8
dtlb_latency 1

stlb_set 128
stlb_way 12
stlb_rq_size 32
stlb_wq_size 32
stlb_pq_size 0
stlb_mshr_size 16
stlb_latency 8

l1i_size 32
l1i_set 64
l1i_way 8
l1i_rq_size 64
l1i_wq_size 64
l1i_pq_size 8
l1i_mshr_size 8
l1i_latency 1

l1d_size 32
l1d_set 64
l1d_way 8
l1d_rq_size 64
l1d_wq_size 64
l1d_pq_size 8
l1d_mshr_size 16
l1d_latency 4

l2c_size 512
l2c_set 1024
l2c_way 8
l2c_rq_size 32
l2c_wq_size 32
l2c_pq_size 16
l2c_mshr_size 32
l2c_latency 10

llc_size 2048
llc_set 2048
llc_way 16
llc_rq_size 32
llc_wq_size 32
llc_pq_size 32
llc_mshr_size 64
llc_latency 20

dram_channel_width 8
dram_wq_size 64
dram_rq_size 64
tRP 15
tRCD 15
tCAS 12.5
dram_dbus_turn_around_time 30
dram_write_high_wm 56
dram_write_low_wm 48
min_dram_writes_per_switch 16
dram_mtps 2400
dram_dbus_return_time 13


Heartbeat CPU  0 instructions:    1000002 cycles:     502353 heartbeat IPC: 1.99064 cumulative IPC: 1.99064 (Simulation time: 0 hr 0 min 1 sec) 
Heartbeat CPU  0 instructions:    2000001 cycles:     993939 heartbeat IPC: 2.03423 cumulative IPC: 2.01220 (Simulation time: 0 hr 0 min 3 sec) 
Heartbeat CPU  0 instructions:    3000001 cycles:    1490647 heartbeat IPC: 2.01326 cumulative IPC: 2.01255 (Simulation time: 0 hr 0 min 4 sec) 
Heartbeat CPU  0 instructions:    4000000 cycles:    1992256 heartbeat IPC: 1.99358 cumulative IPC: 2.00777 (Simulation time: 0 hr 0 min 6 sec) 
Heartbeat CPU  0 instructions:    5000000 cycles:    2494090 heartbeat IPC: 1.99269 cumulative IPC: 2.00474 (Simulation time: 0 hr 0 min 7 sec) 
Heartbeat CPU  0 instructions:    6000001 cycles:    2995849 heartbeat IPC: 1.99299 cumulative IPC: 2.00277 (Simulation time: 0 hr 0 min 9 sec) 
Heartbeat CPU  0 instructions:    7000000 cycles:    3482677 heartbeat IPC: 2.05411 cumulative IPC: 2.00995 (Simulation time: 0 hr 0 min 10 sec) 
Heartbeat CPU  0 instructions:    8000000 cycles:    3984413 heartbeat IPC: 1.99308 cumulative IPC: 2.00782 (Simulation time: 0 hr 0 min 12 sec) 
Heartbeat CPU  0 instructions:    9000001 cycles:    4485353 heartbeat IPC: 1.99625 cumulative IPC: 2.00653 (Simulation time: 0 hr 0 min 13 sec) 
Heartbeat CPU  0 instructions:   10000000 cycles:    4987038 heartbeat IPC: 1.99328 cumulative IPC: 2.00520 (Simulation time: 0 hr 0 min 15 sec) 
Heartbeat CPU  0 instructions:   11000001 cycles:    5480930 heartbeat IPC: 2.02474 cumulative IPC: 2.00696 (Simulation time: 0 hr 0 min 16 sec) 
Heartbeat CPU  0 instructions:   12000000 cycles:    5975673 heartbeat IPC: 2.02125 cumulative IPC: 2.00814 (Simulation time: 0 hr 0 min 18 sec) 
Heartbeat CPU  0 instructions:   13000003 cycles:    6477292 heartbeat IPC: 1.99355 cumulative IPC: 2.00701 (Simulation time: 0 hr 0 min 19 sec) 
Heartbeat CPU  0 instructions:   14000001 cycles:    6978684 heartbeat IPC: 1.99444 cumulative IPC: 2.00611 (Simulation time: 0 hr 0 min 21 sec) 
Heartbeat CPU  0 instructions:   15000003 cycles:    7480040 heartbeat IPC: 1.99459 cumulative IPC: 2.00534 (Simulation time: 0 hr 0 min 22 sec) 
Heartbeat CPU  0 instructions:   16000000 cycles:    7967189 heartbeat IPC: 2.05275 cumulative IPC: 2.00824 (Simulation time: 0 hr 0 min 24 sec) 
Heartbeat CPU  0 instructions:   17000001 cycles:    8468909 heartbeat IPC: 1.99315 cumulative IPC: 2.00734 (Simulation time: 0 hr 0 min 25 sec) 
Heartbeat CPU  0 instructions:   18000001 cycles:    8970251 heartbeat IPC: 1.99465 cumulative IPC: 2.00663 (Simulation time: 0 hr 0 min 27 sec) 
Heartbeat CPU  0 instructions:   19000003 cycles:    9471430 heartbeat IPC: 1.99530 cumulative IPC: 2.00603 (Simulation time: 0 hr 0 min 29 sec) 
Heartbeat CPU  0 instructions:   20000000 cycles:    9967981 heartbeat IPC: 2.01389 cumulative IPC: 2.00642 (Simulation time: 0 hr 0 min 30 sec) 
Heartbeat CPU  0 instructions:   21000001 cycles:   10459967 heartbeat IPC: 2.03258 cumulative IPC: 2.00765 (Simulation time: 0 hr 0 min 32 sec) 
Heartbeat CPU  0 instructions:   22000003 cycles:   10961783 heartbeat IPC: 1.99277 cumulative IPC: 2.00697 (Simulation time: 0 hr 0 min 33 sec) 
Heartbeat CPU  0 instructions:   23000001 cycles:   11463902 heartbeat IPC: 1.99156 cumulative IPC: 2.00630 (Simulation time: 0 hr 0 min 35 sec) 
Heartbeat CPU  0 instructions:   24000000 cycles:   11965428 heartbeat IPC: 1.99391 cumulative IPC: 2.00578 (Simulation time: 0 hr 0 min 36 sec) 
Heartbeat CPU  0 instructions:   25000003 cycles:   12451936 heartbeat IPC: 2.05547 cumulative IPC: 2.00772 (Simulation time: 0 hr 0 min 38 sec) 
Heartbeat CPU  0 instructions:   26000001 cycles:   12953771 heartbeat IPC: 1.99268 cumulative IPC: 2.00714 (Simulation time: 0 hr 0 min 39 sec) 
Heartbeat CPU  0 instructions:   27000003 cycles:   13455770 heartbeat IPC: 1.99204 cumulative IPC: 2.00657 (Simulation time: 0 hr 0 min 41 sec) 
Heartbeat CPU  0 instructions:   28000000 cycles:   13957601 heartbeat IPC: 1.99270 cumulative IPC: 2.00608 (Simulation time: 0 hr 0 min 42 sec) 
Heartbeat CPU  0 instructions:   29000002 cycles:   14455224 heartbeat IPC: 2.00956 cumulative IPC: 2.00620 (Simulation time: 0 hr 0 min 44 sec) 
Heartbeat CPU  0 instructions:   30000000 cycles:   14945562 heartbeat IPC: 2.03941 cumulative IPC: 2.00728 (Simulation time: 0 hr 0 min 45 sec) 
Heartbeat CPU  0 instructions:   31000002 cycles:   15447121 heartbeat IPC: 1.99379 cumulative IPC: 2.00685 (Simulation time: 0 hr 0 min 47 sec) 
Heartbeat CPU  0 instructions:   32000000 cycles:   15948556 heartbeat IPC: 1.99427 cumulative IPC: 2.00645 (Simulation time: 0 hr 0 min 48 sec) 
Heartbeat CPU  0 instructions:   33000001 cycles:   16450539 heartbeat IPC: 1.99210 cumulative IPC: 2.00601 (Simulation time: 0 hr 0 min 50 sec) 
Heartbeat CPU  0 instructions:   34000003 cycles:   16939273 heartbeat IPC: 2.04611 cumulative IPC: 2.00717 (Simulation time: 0 hr 0 min 51 sec) 
Heartbeat CPU  0 instructions:   35000000 cycles:   17438540 heartbeat IPC: 2.00293 cumulative IPC: 2.00705 (Simulation time: 0 hr 0 min 53 sec) 
Heartbeat CPU  0 instructions:   36000000 cycles:   17939816 heartbeat IPC: 1.99491 cumulative IPC: 2.00671 (Simulation time: 0 hr 0 min 55 sec) 
Heartbeat CPU  0 instructions:   37000003 cycles:   18441516 heartbeat IPC: 1.99323 cumulative IPC: 2.00634 (Simulation time: 0 hr 0 min 56 sec) 
Heartbeat CPU  0 instructions:   38000003 cycles:   18942358 heartbeat IPC: 1.99664 cumulative IPC: 2.00609 (Simulation time: 0 hr 0 min 58 sec) 
Heartbeat CPU  0 instructions:   39000003 cycles:   19429880 heartbeat IPC: 2.05119 cumulative IPC: 2.00722 (Simulation time: 0 hr 0 min 59 sec) 
Heartbeat CPU  0 instructions:   40000000 cycles:   19930974 heartbeat IPC: 1.99563 cumulative IPC: 2.00693 (Simulation time: 0 hr 1 min 1 sec) 
Heartbeat CPU  0 instructions:   41000001 cycles:   20432758 heartbeat IPC: 1.99289 cumulative IPC: 2.00658 (Simulation time: 0 hr 1 min 2 sec) 
Heartbeat CPU  0 instructions:   42000002 cycles:   20934673 heartbeat IPC: 1.99237 cumulative IPC: 2.00624 (Simulation time: 0 hr 1 min 4 sec) 
Heartbeat CPU  0 instructions:   43000003 cycles:   21426153 heartbeat IPC: 2.03467 cumulative IPC: 2.00689 (Simulation time: 0 hr 1 min 5 sec) 
Heartbeat CPU  0 instructions:   44000000 cycles:   21923025 heartbeat IPC: 2.01258 cumulative IPC: 2.00702 (Simulation time: 0 hr 1 min 7 sec) 
Heartbeat CPU  0 instructions:   45000001 cycles:   22424994 heartbeat IPC: 1.99216 cumulative IPC: 2.00669 (Simulation time: 0 hr 1 min 8 sec) 
Heartbeat CPU  0 instructions:   46000000 cycles:   22926408 heartbeat IPC: 1.99436 cumulative IPC: 2.00642 (Simulation time: 0 hr 1 min 10 sec) 
Heartbeat CPU  0 instructions:   47000002 cycles:   23428226 heartbeat IPC: 1.99276 cumulative IPC: 2.00613 (Simulation time: 0 hr 1 min 11 sec) 
Heartbeat CPU  0 instructions:   48000000 cycles:   23914833 heartbeat IPC: 2.05504 cumulative IPC: 2.00712 (Simulation time: 0 hr 1 min 13 sec) 
Heartbeat CPU  0 instructions:   49000002 cycles:   24416676 heartbeat IPC: 1.99266 cumulative IPC: 2.00683 (Simulation time: 0 hr 1 min 14 sec) 
Heartbeat CPU  0 instructions:   50000003 cycles:   24918019 heartbeat IPC: 1.99464 cumulative IPC: 2.00658 (Simulation time: 0 hr 1 min 16 sec) 
Heartbeat CPU  0 instructions:   51000003 cycles:   25419333 heartbeat IPC: 1.99476 cumulative IPC: 2.00635 (Simulation time: 0 hr 1 min 17 sec) 
Heartbeat CPU  0 instructions:   52000000 cycles:   25912807 heartbeat IPC: 2.02644 cumulative IPC: 2.00673 (Simulation time: 0 hr 1 min 19 sec) 
Heartbeat CPU  0 instructions:   53000001 cycles:   26407869 heartbeat IPC: 2.01995 cumulative IPC: 2.00698 (Simulation time: 0 hr 1 min 20 sec) 
Heartbeat CPU  0 instructions:   54000003 cycles:   26909513 heartbeat IPC: 1.99345 cumulative IPC: 2.00673 (Simulation time: 0 hr 1 min 22 sec) 
Heartbeat CPU  0 instructions:   55000003 cycles:   27411053 heartbeat IPC: 1.99386 cumulative IPC: 2.00649 (Simulation time: 0 hr 1 min 23 sec) 
Heartbeat CPU  0 instructions:   56000000 cycles:   27912270 heartbeat IPC: 1.99514 cumulative IPC: 2.00629 (Simulation time: 0 hr 1 min 25 sec) 
Heartbeat CPU  0 instructions:   57000002 cycles:   28399263 heartbeat IPC: 2.05342 cumulative IPC: 2.00709 (Simulation time: 0 hr 1 min 26 sec) 
Heartbeat CPU  0 instructions:   58000003 cycles:   28900805 heartbeat IPC: 1.99385 cumulative IPC: 2.00686 (Simulation time: 0 hr 1 min 28 sec) 
Heartbeat CPU  0 instructions:   59000001 cycles:   29402410 heartbeat IPC: 1.99360 cumulative IPC: 2.00664 (Simulation time: 0 hr 1 min 29 sec) 
Heartbeat CPU  0 instructions:   60000000 cycles:   29903530 heartbeat IPC: 1.99553 cumulative IPC: 2.00645 (Simulation time: 0 hr 1 min 31 sec) 
Heartbeat CPU  0 instructions:   61000000 cycles:   30399535 heartbeat IPC: 2.01611 cumulative IPC: 2.00661 (Simulation time: 0 hr 1 min 32 sec) 
Heartbeat CPU  0 instructions:   62000001 cycles:   30891821 heartbeat IPC: 2.03134 cumulative IPC: 2.00700 (Simulation time: 0 hr 1 min 34 sec) 
Heartbeat CPU  0 instructions:   63000001 cycles:   31393615 heartbeat IPC: 1.99285 cumulative IPC: 2.00678 (Simulation time: 0 hr 1 min 35 sec) 
Heartbeat CPU  0 instructions:   64000000 cycles:   31895673 heartbeat IPC: 1.99180 cumulative IPC: 2.00654 (Simulation time: 0 hr 1 min 37 sec) 
Heartbeat CPU  0 instructions:   65000000 cycles:   32397351 heartbeat IPC: 1.99331 cumulative IPC: 2.00634 (Simulation time: 0 hr 1 min 38 sec) 
Heartbeat CPU  0 instructions:   66000003 cycles:   32883570 heartbeat IPC: 2.05669 cumulative IPC: 2.00708 (Simulation time: 0 hr 1 min 40 sec) 
Heartbeat CPU  0 instructions:   67000000 cycles:   33385386 heartbeat IPC: 1.99276 cumulative IPC: 2.00687 (Simulation time: 0 hr 1 min 41 sec) 
Heartbeat CPU  0 instructions:   68000000 cycles:   33887163 heartbeat IPC: 1.99292 cumulative IPC: 2.00666 (Simulation time: 0 hr 1 min 43 sec) 
Heartbeat CPU  0 instructions:   69000001 cycles:   34389202 heartbeat IPC: 1.99188 cumulative IPC: 2.00644 (Simulation time: 0 hr 1 min 44 sec) 
Heartbeat CPU  0 instructions:   70000000 cycles:   34886511 heartbeat IPC: 2.01082 cumulative IPC: 2.00651 (Simulation time: 0 hr 1 min 46 sec) 
Heartbeat CPU  0 instructions:   71000001 cycles:   35376997 heartbeat IPC: 2.03880 cumulative IPC: 2.00695 (Simulation time: 0 hr 1 min 47 sec) 
Heartbeat CPU  0 instructions:   72000000 cycles:   35878882 heartbeat IPC: 1.99249 cumulative IPC: 2.00675 (Simulation time: 0 hr 1 min 49 sec) 
Heartbeat CPU  0 instructions:   73000002 cycles:   36379993 heartbeat IPC: 1.99557 cumulative IPC: 2.00660 (Simulation time: 0 hr 1 min 50 sec) 
Heartbeat CPU  0 instructions:   74000003 cycles:   36881745 heartbeat IPC: 1.99302 cumulative IPC: 2.00641 (Simulation time: 0 hr 1 min 52 sec) 
Heartbeat CPU  0 instructions:   75000001 cycles:   37370468 heartbeat IPC: 2.04614 cumulative IPC: 2.00693 (Simulation time: 0 hr 1 min 53 sec) 
Heartbeat CPU  0 instructions:   76000000 cycles:   37869826 heartbeat IPC: 2.00257 cumulative IPC: 2.00687 (Simulation time: 0 hr 1 min 55 sec) 
Heartbeat CPU  0 instructions:   77000000 cycles:   38371571 heartbeat IPC: 1.99304 cumulative IPC: 2.00669 (Simulation time: 0 hr 1 min 56 sec) 
Heartbeat CPU  0 instructions:   78000003 cycles:   38873049 heartbeat IPC: 1.99411 cumulative IPC: 2.00653 (Simulation time: 0 hr 1 min 58 sec) 
Heartbeat CPU  0 instructions:   79000001 cycles:   39373427 heartbeat IPC: 1.99849 cumulative IPC: 2.00643 (Simulation time: 0 hr 1 min 59 sec) 
Heartbeat CPU  0 instructions:   80000000 cycles:   39861960 heartbeat IPC: 2.04694 cumulative IPC: 2.00693 (Simulation time: 0 hr 2 min 1 sec) 
Heartbeat CPU  0 instructions:   81000003 cycles:   40362944 heartbeat IPC: 1.99608 cumulative IPC: 2.00679 (Simulation time: 0 hr 2 min 3 sec) 
Heartbeat CPU  0 instructions:   82000003 cycles:   40864490 heartbeat IPC: 1.99384 cumulative IPC: 2.00663 (Simulation time: 0 hr 2 min 4 sec) 
Heartbeat CPU  0 instructions:   83000001 cycles:   41366155 heartbeat IPC: 1.99336 cumulative IPC: 2.00647 (Simulation time: 0 hr 2 min 5 sec) 
Heartbeat CPU  0 instructions:   84000000 cycles:   41857363 heartbeat IPC: 2.03580 cumulative IPC: 2.00682 (Simulation time: 0 hr 2 min 7 sec) 
Heartbeat CPU  0 instructions:   85000002 cycles:   42354833 heartbeat IPC: 2.01018 cumulative IPC: 2.00685 (Simulation time: 0 hr 2 min 8 sec) 
Heartbeat CPU  0 instructions:   86000002 cycles:   42856742 heartbeat IPC: 1.99239 cumulative IPC: 2.00669 (Simulation time: 0 hr 2 min 10 sec) 
Heartbeat CPU  0 instructions:   87000002 cycles:   43358293 heartbeat IPC: 1.99382 cumulative IPC: 2.00654 (Simulation time: 0 hr 2 min 11 sec) 
Heartbeat CPU  0 instructions:   88000000 cycles:   43860185 heartbeat IPC: 1.99246 cumulative IPC: 2.00638 (Simulation time: 0 hr 2 min 13 sec) 
Heartbeat CPU  0 instructions:   89000003 cycles:   44346901 heartbeat IPC: 2.05459 cumulative IPC: 2.00690 (Simulation time: 0 hr 2 min 14 sec) 
Heartbeat CPU  0 instructions:   90000002 cycles:   44848953 heartbeat IPC: 1.99182 cumulative IPC: 2.00674 (Simulation time: 0 hr 2 min 16 sec) 
Heartbeat CPU  0 instructions:   91000000 cycles:   45350354 heartbeat IPC: 1.99441 cumulative IPC: 2.00660 (Simulation time: 0 hr 2 min 17 sec) 
Heartbeat CPU  0 instructions:   92000000 cycles:   45851990 heartbeat IPC: 1.99348 cumulative IPC: 2.00646 (Simulation time: 0 hr 2 min 19 sec) 
Heartbeat CPU  0 instructions:   93000002 cycles:   46344782 heartbeat IPC: 2.02926 cumulative IPC: 2.00670 (Simulation time: 0 hr 2 min 21 sec) 
Heartbeat CPU  0 instructions:   94000003 cycles:   46840552 heartbeat IPC: 2.01707 cumulative IPC: 2.00681 (Simulation time: 0 hr 2 min 22 sec) 
Heartbeat CPU  0 instructions:   95000003 cycles:   47342104 heartbeat IPC: 1.99381 cumulative IPC: 2.00667 (Simulation time: 0 hr 2 min 24 sec) 
Heartbeat CPU  0 instructions:   96000000 cycles:   47843729 heartbeat IPC: 1.99352 cumulative IPC: 2.00653 (Simulation time: 0 hr 2 min 25 sec) 
Heartbeat CPU  0 instructions:   97000000 cycles:   48345095 heartbeat IPC: 1.99455 cumulative IPC: 2.00641 (Simulation time: 0 hr 2 min 27 sec) 
Heartbeat CPU  0 instructions:   98000000 cycles:   48831787 heartbeat IPC: 2.05469 cumulative IPC: 2.00689 (Simulation time: 0 hr 2 min 28 sec) 
Heartbeat CPU  0 instructions:   99000002 cycles:   49333432 heartbeat IPC: 1.99345 cumulative IPC: 2.00675 (Simulation time: 0 hr 2 min 30 sec) 
Heartbeat CPU  0 instructions:  100000000 cycles:   49835005 heartbeat IPC: 1.99372 cumulative IPC: 2.00662 (Simulation time: 0 hr 2 min 31 sec) 

Warmup complete CPU  0 instructions:  100000003 cycles:   49835006 (Simulation time: 0 hr 2 min 31 sec) 

Heartbeat CPU  0 instructions:  101000001 cycles:   50663729 heartbeat IPC: 1.20668 cumulative IPC: 1.20667 (Simulation time: 0 hr 2 min 33 sec) 
Heartbeat CPU  0 instructions:  102000002 cycles:   51500000 heartbeat IPC: 1.19579 cumulative IPC: 1.20120 (Simulation time: 0 hr 2 min 35 sec) 
Heartbeat CPU  0 instructions:  103000001 cycles:   52349645 heartbeat IPC: 1.17696 cumulative IPC: 1.19301 (Simulation time: 0 hr 2 min 36 sec) 
Heartbeat CPU  0 instructions:  104000000 cycles:   53194626 heartbeat IPC: 1.18346 cumulative IPC: 1.19061 (Simulation time: 0 hr 2 min 38 sec) 
Heartbeat CPU  0 instructions:  105000003 cycles:   54018563 heartbeat IPC: 1.21369 cumulative IPC: 1.19516 (Simulation time: 0 hr 2 min 40 sec) 
Heartbeat CPU  0 instructions:  106000001 cycles:   54846018 heartbeat IPC: 1.20852 cumulative IPC: 1.19736 (Simulation time: 0 hr 2 min 41 sec) 
Heartbeat CPU  0 instructions:  107000002 cycles:   55690172 heartbeat IPC: 1.18462 cumulative IPC: 1.19553 (Simulation time: 0 hr 2 min 43 sec) 
Heartbeat CPU  0 instructions:  108000000 cycles:   56531513 heartbeat IPC: 1.18858 cumulative IPC: 1.19465 (Simulation time: 0 hr 2 min 45 sec) 
Heartbeat CPU  0 instructions:  109000003 cycles:   57374900 heartbeat IPC: 1.18570 cumulative IPC: 1.19365 (Simulation time: 0 hr 2 min 47 sec) 
Heartbeat CPU  0 instructions:  110000001 cycles:   58206064 heartbeat IPC: 1.20313 cumulative IPC: 1.19459 (Simulation time: 0 hr 2 min 48 sec) 
Heartbeat CPU  0 instructions:  111000003 cycles:   59030052 heartbeat IPC: 1.21361 cumulative IPC: 1.19630 (Simulation time: 0 hr 2 min 50 sec) 
Heartbeat CPU  0 instructions:  112000000 cycles:   59871722 heartbeat IPC: 1.18811 cumulative IPC: 1.19561 (Simulation time: 0 hr 2 min 52 sec) 
Heartbeat CPU  0 instructions:  113000002 cycles:   60712993 heartbeat IPC: 1.18868 cumulative IPC: 1.19507 (Simulation time: 0 hr 2 min 53 sec) 
Heartbeat CPU  0 instructions:  114000002 cycles:   61552895 heartbeat IPC: 1.19062 cumulative IPC: 1.19475 (Simulation time: 0 hr 2 min 55 sec) 
Heartbeat CPU  0 instructions:  115000000 cycles:   62388903 heartbeat IPC: 1.19616 cumulative IPC: 1.19485 (Simulation time: 0 hr 2 min 57 sec) 
Heartbeat CPU  0 instructions:  116000000 cycles:   63222082 heartbeat IPC: 1.20022 cumulative IPC: 1.19518 (Simulation time: 0 hr 2 min 58 sec) 
Heartbeat CPU  0 instructions:  117000002 cycles:   64054918 heartbeat IPC: 1.20072 cumulative IPC: 1.19551 (Simulation time: 0 hr 3 min 0 sec) 
Heartbeat CPU  0 instructions:  118000001 cycles:   64892068 heartbeat IPC: 1.19453 cumulative IPC: 1.19545 (Simulation time: 0 hr 3 min 2 sec) 
Heartbeat CPU  0 instructions:  119000002 cycles:   65732471 heartbeat IPC: 1.18991 cumulative IPC: 1.19516 (Simulation time: 0 hr 3 min 4 sec) 
Heartbeat CPU  0 instructions:  120000000 cycles:   66575999 heartbeat IPC: 1.18549 cumulative IPC: 1.19467 (Simulation time: 0 hr 3 min 5 sec) 
Heartbeat CPU  0 instructions:  121000001 cycles:   67409011 heartbeat IPC: 1.20046 cumulative IPC: 1.19495 (Simulation time: 0 hr 3 min 7 sec) 
Heartbeat CPU  0 instructions:  122000002 cycles:   68239036 heartbeat IPC: 1.20478 cumulative IPC: 1.19539 (Simulation time: 0 hr 3 min 9 sec) 
Heartbeat CPU  0 instructions:  123000000 cycles:   69073782 heartbeat IPC: 1.19797 cumulative IPC: 1.19550 (Simulation time: 0 hr 3 min 10 sec) 
Heartbeat CPU  0 instructions:  124000000 cycles:   69918120 heartbeat IPC: 1.18436 cumulative IPC: 1.19503 (Simulation time: 0 hr 3 min 12 sec) 
Heartbeat CPU  0 instructions:  125000000 cycles:   70770004 heartbeat IPC: 1.17387 cumulative IPC: 1.19417 (Simulation time: 0 hr 3 min 14 sec) 
Heartbeat CPU  0 instructions:  126000000 cycles:   71595802 heartbeat IPC: 1.21095 cumulative IPC: 1.19481 (Simulation time: 0 hr 3 min 16 sec) 
Heartbeat CPU  0 instructions:  127000000 cycles:   72423490 heartbeat IPC: 1.20818 cumulative IPC: 1.19530 (Simulation time: 0 hr 3 min 17 sec) 
Heartbeat CPU  0 instructions:  128000000 cycles:   73255484 heartbeat IPC: 1.20193 cumulative IPC: 1.19553 (Simulation time: 0 hr 3 min 19 sec) 
Heartbeat CPU  0 instructions:  129000002 cycles:   74097311 heartbeat IPC: 1.18789 cumulative IPC: 1.19527 (Simulation time: 0 hr 3 min 21 sec) 
Heartbeat CPU  0 instructions:  130000002 cycles:   74952660 heartbeat IPC: 1.16911 cumulative IPC: 1.19438 (Simulation time: 0 hr 3 min 22 sec) 
Heartbeat CPU  0 instructions:  131000002 cycles:   75777478 heartbeat IPC: 1.21239 cumulative IPC: 1.19495 (Simulation time: 0 hr 3 min 24 sec) 
Heartbeat CPU  0 instructions:  132000000 cycles:   76601937 heartbeat IPC: 1.21291 cumulative IPC: 1.19550 (Simulation time: 0 hr 3 min 26 sec) 
Heartbeat CPU  0 instructions:  133000000 cycles:   77432829 heartbeat IPC: 1.20353 cumulative IPC: 1.19575 (Simulation time: 0 hr 3 min 27 sec) 
Heartbeat CPU  0 instructions:  134000000 cycles:   78276965 heartbeat IPC: 1.18464 cumulative IPC: 1.19542 (Simulation time: 0 hr 3 min 29 sec) 
Heartbeat CPU  0 instructions:  135000002 cycles:   79128186 heartbeat IPC: 1.17479 cumulative IPC: 1.19482 (Simulation time: 0 hr 3 min 31 sec) 
Heartbeat CPU  0 instructions:  136000000 cycles:   79954338 heartbeat IPC: 1.21043 cumulative IPC: 1.19525 (Simulation time: 0 hr 3 min 32 sec) 
Heartbeat CPU  0 instructions:  137000001 cycles:   80778300 heartbeat IPC: 1.21365 cumulative IPC: 1.19574 (Simulation time: 0 hr 3 min 34 sec) 
Heartbeat CPU  0 instructions:  138000003 cycles:   81610389 heartbeat IPC: 1.20180 cumulative IPC: 1.19589 (Simulation time: 0 hr 3 min 36 sec) 
Heartbeat CPU  0 instructions:  139000003 cycles:   82455625 heartbeat IPC: 1.18310 cumulative IPC: 1.19556 (Simulation time: 0 hr 3 min 38 sec) 
Heartbeat CPU  0 instructions:  140000000 cycles:   83304268 heartbeat IPC: 1.17835 cumulative IPC: 1.19513 (Simulation time: 0 hr 3 min 40 sec) 
Heartbeat CPU  0 instructions:  141000003 cycles:   84132833 heartbeat IPC: 1.20691 cumulative IPC: 1.19541 (Simulation time: 0 hr 3 min 41 sec) 
Heartbeat CPU  0 instructions:  142000000 cycles:   84955071 heartbeat IPC: 1.21619 cumulative IPC: 1.19590 (Simulation time: 0 hr 3 min 43 sec) 
Heartbeat CPU  0 instructions:  143000000 cycles:   85785283 heartbeat IPC: 1.20451 cumulative IPC: 1.19610 (Simulation time: 0 hr 3 min 45 sec) 
Heartbeat CPU  0 instructions:  144000000 cycles:   86625521 heartbeat IPC: 1.19014 cumulative IPC: 1.19596 (Simulation time: 0 hr 3 min 46 sec) 
Heartbeat CPU  0 instructions:  145000002 cycles:   87473687 heartbeat IPC: 1.17902 cumulative IPC: 1.19558 (Simulation time: 0 hr 3 min 48 sec) 
Heartbeat CPU  0 instructions:  146000002 cycles:   88309734 heartbeat IPC: 1.19611 cumulative IPC: 1.19559 (Simulation time: 0 hr 3 min 50 sec) 
Heartbeat CPU  0 instructions:  147000002 cycles:   89195152 heartbeat IPC: 1.12941 cumulative IPC: 1.19410 (Simulation time: 0 hr 3 min 52 sec) 
Heartbeat CPU  0 instructions:  148000000 cycles:   90369428 heartbeat IPC: 0.85159 cumulative IPC: 1.18418 (Simulation time: 0 hr 3 min 53 sec) 
Heartbeat CPU  0 instructions:  149000002 cycles:   91553866 heartbeat IPC: 0.84428 cumulative IPC: 1.17453 (Simulation time: 0 hr 3 min 55 sec) 
Heartbeat CPU  0 instructions:  150000002 cycles:   92731132 heartbeat IPC: 0.84943 cumulative IPC: 1.16561 (Simulation time: 0 hr 3 min 57 sec) 
Heartbeat CPU  0 instructions:  151000000 cycles:   93907158 heartbeat IPC: 0.85032 cumulative IPC: 1.15719 (Simulation time: 0 hr 3 min 59 sec) 
Heartbeat CPU  0 instructions:  152000000 cycles:   95078818 heartbeat IPC: 0.85349 cumulative IPC: 1.14933 (Simulation time: 0 hr 4 min 0 sec) 
Heartbeat CPU  0 instructions:  153000003 cycles:   96266549 heartbeat IPC: 0.84194 cumulative IPC: 1.14147 (Simulation time: 0 hr 4 min 2 sec) 
Heartbeat CPU  0 instructions:  154000002 cycles:   97448255 heartbeat IPC: 0.84623 cumulative IPC: 1.13414 (Simulation time: 0 hr 4 min 4 sec) 
Heartbeat CPU  0 instructions:  155000003 cycles:   98637145 heartbeat IPC: 0.84112 cumulative IPC: 1.12700 (Simulation time: 0 hr 4 min 6 sec) 
Heartbeat CPU  0 instructions:  156000000 cycles:   99827012 heartbeat IPC: 0.84043 cumulative IPC: 1.12018 (Simulation time: 0 hr 4 min 8 sec) 
Heartbeat CPU  0 instructions:  157000003 cycles:  101016560 heartbeat IPC: 0.84066 cumulative IPC: 1.11368 (Simulation time: 0 hr 4 min 9 sec) 
Heartbeat CPU  0 instructions:  158000000 cycles:  102192847 heartbeat IPC: 0.85013 cumulative IPC: 1.10776 (Simulation time: 0 hr 4 min 11 sec) 
Heartbeat CPU  0 instructions:  159000003 cycles:  103371162 heartbeat IPC: 0.84867 cumulative IPC: 1.10206 (Simulation time: 0 hr 4 min 13 sec) 
Heartbeat CPU  0 instructions:  160000000 cycles:  104552289 heartbeat IPC: 0.84665 cumulative IPC: 1.09655 (Simulation time: 0 hr 4 min 15 sec) 
Heartbeat CPU  0 instructions:  161000000 cycles:  105733941 heartbeat IPC: 0.84627 cumulative IPC: 1.09126 (Simulation time: 0 hr 4 min 17 sec) 
Heartbeat CPU  0 instructions:  162000000 cycles:  106928156 heartbeat IPC: 0.83737 cumulative IPC: 1.08594 (Simulation time: 0 hr 4 min 18 sec) 
Heartbeat CPU  0 instructions:  163000002 cycles:  108113511 heartbeat IPC: 0.84363 cumulative IPC: 1.08102 (Simulation time: 0 hr 4 min 20 sec) 
Heartbeat CPU  0 instructions:  164000000 cycles:  109297095 heartbeat IPC: 0.84489 cumulative IPC: 1.07632 (Simulation time: 0 hr 4 min 22 sec) 
Heartbeat CPU  0 instructions:  165000003 cycles:  110486711 heartbeat IPC: 0.84061 cumulative IPC: 1.07169 (Simulation time: 0 hr 4 min 24 sec) 
Heartbeat CPU  0 instructions:  166000001 cycles:  111677351 heartbeat IPC: 0.83988 cumulative IPC: 1.06723 (Simulation time: 0 hr 4 min 26 sec) 
Heartbeat CPU  0 instructions:  167000001 cycles:  112857434 heartbeat IPC: 0.84740 cumulative IPC: 1.06311 (Simulation time: 0 hr 4 min 27 sec) 
Heartbeat CPU  0 instructions:  168000000 cycles:  114038918 heartbeat IPC: 0.84639 cumulative IPC: 1.05913 (Simulation time: 0 hr 4 min 29 sec) 
Heartbeat CPU  0 instructions:  169000002 cycles:  115223116 heartbeat IPC: 0.84446 cumulative IPC: 1.05524 (Simulation time: 0 hr 4 min 31 sec) 
Heartbeat CPU  0 instructions:  170000002 cycles:  116398184 heartbeat IPC: 0.85101 cumulative IPC: 1.05163 (Simulation time: 0 hr 4 min 33 sec) 
Heartbeat CPU  0 instructions:  171000002 cycles:  117581606 heartbeat IPC: 0.84501 cumulative IPC: 1.04802 (Simulation time: 0 hr 4 min 35 sec) 
Heartbeat CPU  0 instructions:  172000000 cycles:  118764605 heartbeat IPC: 0.84531 cumulative IPC: 1.04454 (Simulation time: 0 hr 4 min 36 sec) 
Heartbeat CPU  0 instructions:  173000002 cycles:  119948254 heartbeat IPC: 0.84485 cumulative IPC: 1.04117 (Simulation time: 0 hr 4 min 38 sec) 
Heartbeat CPU  0 instructions:  174000003 cycles:  121137397 heartbeat IPC: 0.84094 cumulative IPC: 1.03783 (Simulation time: 0 hr 4 min 40 sec) 
Heartbeat CPU  0 instructions:  175000002 cycles:  122330883 heartbeat IPC: 0.83788 cumulative IPC: 1.03454 (Simulation time: 0 hr 4 min 42 sec) 
Heartbeat CPU  0 instructions:  176000000 cycles:  123513925 heartbeat IPC: 0.84528 cumulative IPC: 1.03150 (Simulation time: 0 hr 4 min 44 sec) 
Heartbeat CPU  0 instructions:  177000003 cycles:  124699025 heartbeat IPC: 0.84381 cumulative IPC: 1.02853 (Simulation time: 0 hr 4 min 46 sec) 
Heartbeat CPU  0 instructions:  178000000 cycles:  125885764 heartbeat IPC: 0.84264 cumulative IPC: 1.02563 (Simulation time: 0 hr 4 min 47 sec) 
Heartbeat CPU  0 instructions:  179000002 cycles:  127079625 heartbeat IPC: 0.83762 cumulative IPC: 1.02272 (Simulation time: 0 hr 4 min 49 sec) 
Heartbeat CPU  0 instructions:  180000000 cycles:  128267972 heartbeat IPC: 0.84150 cumulative IPC: 1.01998 (Simulation time: 0 hr 4 min 51 sec) 
Heartbeat CPU  0 instructions:  181000003 cycles:  129456223 heartbeat IPC: 0.84158 cumulative IPC: 1.01732 (Simulation time: 0 hr 4 min 53 sec) 
Heartbeat CPU  0 instructions:  182000002 cycles:  130640366 heartbeat IPC: 0.84449 cumulative IPC: 1.01478 (Simulation time: 0 hr 4 min 55 sec) 
Heartbeat CPU  0 instructions:  183000000 cycles:  131830594 heartbeat IPC: 0.84017 cumulative IPC: 1.01225 (Simulation time: 0 hr 4 min 57 sec) 
Heartbeat CPU  0 instructions:  184000000 cycles:  133014204 heartbeat IPC: 0.84487 cumulative IPC: 1.00987 (Simulation time: 0 hr 4 min 58 sec) 
Heartbeat CPU  0 instructions:  185000003 cycles:  134202514 heartbeat IPC: 0.84153 cumulative IPC: 1.00750 (Simulation time: 0 hr 5 min 0 sec) 
Heartbeat CPU  0 instructions:  186000001 cycles:  135389989 heartbeat IPC: 0.84212 cumulative IPC: 1.00520 (Simulation time: 0 hr 5 min 2 sec) 
Heartbeat CPU  0 instructions:  187000002 cycles:  136581100 heartbeat IPC: 0.83955 cumulative IPC: 1.00293 (Simulation time: 0 hr 5 min 4 sec) 
Heartbeat CPU  0 instructions:  188000000 cycles:  137767702 heartbeat IPC: 0.84274 cumulative IPC: 1.00077 (Simulation time: 0 hr 5 min 6 sec) 
Heartbeat CPU  0 instructions:  189000001 cycles:  138960244 heartbeat IPC: 0.83855 cumulative IPC: 0.99859 (Simulation time: 0 hr 5 min 7 sec) 
Heartbeat CPU  0 instructions:  190000003 cycles:  140154029 heartbeat IPC: 0.83767 cumulative IPC: 0.99647 (Simulation time: 0 hr 5 min 9 sec) 
Heartbeat CPU  0 instructions:  191000002 cycles:  141340380 heartbeat IPC: 0.84292 cumulative IPC: 0.99448 (Simulation time: 0 hr 5 min 11 sec) 
Heartbeat CPU  0 instructions:  192000000 cycles:  142495548 heartbeat IPC: 0.86567 cumulative IPC: 0.99287 (Simulation time: 0 hr 5 min 13 sec) 
Heartbeat CPU  0 instructions:  193000003 cycles:  143390312 heartbeat IPC: 1.11762 cumulative IPC: 0.99406 (Simulation time: 0 hr 5 min 15 sec) 
Heartbeat CPU  0 instructions:  194000001 cycles:  147269105 heartbeat IPC: 0.25781 cumulative IPC: 0.96475 (Simulation time: 0 hr 5 min 18 sec) 
Heartbeat CPU  0 instructions:  195000000 cycles:  150508705 heartbeat IPC: 0.30868 cumulative IPC: 0.94364 (Simulation time: 0 hr 5 min 21 sec) 
Heartbeat CPU  0 instructions:  196000000 cycles:  151217558 heartbeat IPC: 1.41073 cumulative IPC: 0.94691 (Simulation time: 0 hr 5 min 23 sec) 
Heartbeat CPU  0 instructions:  197000000 cycles:  151927008 heartbeat IPC: 1.40954 cumulative IPC: 0.95012 (Simulation time: 0 hr 5 min 24 sec) 
Heartbeat CPU  0 instructions:  198000003 cycles:  152635958 heartbeat IPC: 1.41054 cumulative IPC: 0.95330 (Simulation time: 0 hr 5 min 26 sec) 
Heartbeat CPU  0 instructions:  199000002 cycles:  153349461 heartbeat IPC: 1.40153 cumulative IPC: 0.95639 (Simulation time: 0 hr 5 min 28 sec) 
Heartbeat CPU  0 instructions:  200000000 cycles:  154058624 heartbeat IPC: 1.41011 cumulative IPC: 0.95948 (Simulation time: 0 hr 5 min 30 sec) 
Finished CPU 0 instructions: 100000000 cycles: 104223647 cumulative IPC: 0.95948 (Simulation time: 0 hr 5 min 30 sec) 

ChampSim completed all CPUs

[ROI Statistics]
Core_0_instructions 100000000
Core_0_cycles 104223647
Core_0_IPC 0.95948

Core_0_branch_prediction_accuracy 99.15344
Core_0_branch_MPKI 0.35029
Core_0_average_ROB_occupancy_at_mispredict 249.72814

Core_0_L1D_total_access 49783774
Core_0_L1D_total_hit 47807593
Core_0_L1D_total_miss 1976181
Core_0_L1D_loads 23353392
Core_0_L1D_load_hit 22818653
Core_0_L1D_load_miss 534739
Core_0_L1D_RFOs 4499143
Core_0_L1D_RFO_hit 4184215
Core_0_L1D_RFO_miss 314928
Core_0_L1D_prefetches 21931239
Core_0_L1D_prefetch_hit 20804725
Core_0_L1D_prefetch_miss 1126514
Core_0_L1D_writebacks 0
Core_0_L1D_writeback_hit 0
Core_0_L1D_writeback_miss 0
Core_0_L1D_prefetch_requested 59219333
Core_0_L1D_prefetch_issued 57145878
Core_0_L1D_prefetch_useful 1640883
Core_0_L1D_prefetch_useless 1229523
Core_0_L1D_prefetch_late 138595
Core_0_L1D_average_miss_latency 7767381.23569

Core_0_L1I_total_access 22644883
Core_0_L1I_total_hit 22644663
Core_0_L1I_total_miss 220
Core_0_L1I_loads 22644883
Core_0_L1I_load_hit 22644663
Core_0_L1I_load_miss 220
Core_0_L1I_RFOs 0
Core_0_L1I_RFO_hit 0
Core_0_L1I_RFO_miss 0
Core_0_L1I_prefetches 0
Core_0_L1I_prefetch_hit 0
Core_0_L1I_prefetch_miss 0
Core_0_L1I_writebacks 0
Core_0_L1I_writeback_hit 0
Core_0_L1I_writeback_miss 0
Core_0_L1I_prefetch_requested 0
Core_0_L1I_prefetch_issued 0
Core_0_L1I_prefetch_useful 0
Core_0_L1I_prefetch_useless 0
Core_0_L1I_prefetch_late 0
Core_0_L1I_average_miss_latency 253.04545

Core_0_L2C_total_access 4328593
Core_0_L2C_total_hit 3232679
Core_0_L2C_total_miss 1095914
Core_0_L2C_loads 398014
Core_0_L2C_load_hit 333350
Core_0_L2C_load_miss 64664
Core_0_L2C_RFOs 314767
Core_0_L2C_RFO_hit 124452
Core_0_L2C_RFO_miss 190315
Core_0_L2C_prefetches 3056866
Core_0_L2C_prefetch_hit 2216124
Core_0_L2C_prefetch_miss 840742
Core_0_L2C_writebacks 558946
Core_0_L2C_writeback_hit 558753
Core_0_L2C_writeback_miss 193
Core_0_L2C_prefetch_requested 4630982
Core_0_L2C_prefetch_issued 4628232
Core_0_L2C_prefetch_useful 163970
Core_0_L2C_prefetch_useless 1253650
Core_0_L2C_prefetch_late 1388
Core_0_L2C_average_miss_latency 246.54890

Core_0_LLC_total_access 1514263
Core_0_LLC_total_hit 538161
Core_0_LLC_total_miss 976102
Core_0_LLC_loads 63711
Core_0_LLC_load_hit 17659
Core_0_LLC_load_miss 46052
Core_0_LLC_RFOs 189880
Core_0_LLC_RFO_hit 9978
Core_0_LLC_RFO_miss 179902
Core_0_LLC_prefetches 851586
Core_0_LLC_prefetch_hit 107957
Core_0_LLC_prefetch_miss 743629
Core_0_LLC_writebacks 409086
Core_0_LLC_writeback_hit 402567
Core_0_LLC_writeback_miss 6519
Core_0_LLC_prefetch_requested 0
Core_0_LLC_prefetch_issued 0
Core_0_LLC_prefetch_useful 36185
Core_0_LLC_prefetch_useless 1051001
Core_0_LLC_prefetch_late 38
Core_0_LLC_average_miss_latency 245.72255

Core_0_major_page_fault 0
Core_0_minor_page_fault 15627

CPU 0 L1D next line prefetcher final stats
CPU 0 L2C PC-based stride prefetcher final stats
Channel_0_RQ_row_buffer_hit 305168
Channel_0_RQ_row_buffer_miss 664399
Channel_0_WQ_row_buffer_hit 76065
Channel_0_WQ_row_buffer_miss 305091
Channel_0_WQ_full 0
Channel_0_dbus_congested 516682

avg_congested_cycle 9
