*************************************************
   ChampSim Multicore Out-of-Order Simulator
   Last compiled: Dec 23 2023 13:40:29
*************************************************

trace_0 ./test_trace/437.leslie3d-134B.champsimtrace.xz
CPU 0 L2C IP-based stride prefetcher
Initialize SHIP state
LLC Next Line Prefetcher
warmup_instructions 100000000
simulation_instructions 100000000
champsim_seed 218

num_cpus 1
cpu_freq 4000
dram_io_freq 2400
page_size 4096
block_size 64
max_read_per_cycle 8
max_fill_per_cycle 1
dram_channels 1
dram_ranks 1
dram_banks 8
dram_rows 65536
dram_columns 128
dram_row_size 8
dram_size 4096
dram_pages 1048576

fetch_width 6
decode_width 6
exec_width 4
lq_width 2
sq_width 2
retire_width 4
scheduler_size 128
branch_mispredict_penalty 20
rob_size 256
lq_size 72
sq_size 56
num_instr_destinations_sparc 4
num_instr_destinations 2
num_instr_sources 4

itlb_set 16
itlb_way 8
itlb_rq_size 16
itlb_wq_size 16
itlb_pq_size 0
itlb_mshr_size 8
itlb_latency 1

dtlb_set 16
dtlb_way 4
dtlb_rq_size 16
dtlb_wq_size 16
dtlb_pq_size 0
dtlb_mshr_size 8
dtlb_latency 1

stlb_set 128
stlb_way 12
stlb_rq_size 32
stlb_wq_size 32
stlb_pq_size 0
stlb_mshr_size 16
stlb_latency 8

l1i_size 32
l1i_set 64
l1i_way 8
l1i_rq_size 64
l1i_wq_size 64
l1i_pq_size 8
l1i_mshr_size 8
l1i_latency 1

l1d_size 32
l1d_set 64
l1d_way 8
l1d_rq_size 64
l1d_wq_size 64
l1d_pq_size 8
l1d_mshr_size 16
l1d_latency 4

l2c_size 512
l2c_set 1024
l2c_way 8
l2c_rq_size 32
l2c_wq_size 32
l2c_pq_size 16
l2c_mshr_size 32
l2c_latency 10

llc_size 2048
llc_set 2048
llc_way 16
llc_rq_size 32
llc_wq_size 32
llc_pq_size 32
llc_mshr_size 64
llc_latency 20

dram_channel_width 8
dram_wq_size 64
dram_rq_size 64
tRP 15
tRCD 15
tCAS 12.5
dram_dbus_turn_around_time 30
dram_write_high_wm 56
dram_write_low_wm 48
min_dram_writes_per_switch 16
dram_mtps 2400
dram_dbus_return_time 13


Heartbeat CPU  0 instructions:    1000002 cycles:     502251 heartbeat IPC: 1.99104 cumulative IPC: 1.99104 (Simulation time: 0 hr 0 min 1 sec) 
Heartbeat CPU  0 instructions:    2000001 cycles:     993704 heartbeat IPC: 2.03478 cumulative IPC: 2.01267 (Simulation time: 0 hr 0 min 3 sec) 
Heartbeat CPU  0 instructions:    3000001 cycles:    1490366 heartbeat IPC: 2.01344 cumulative IPC: 2.01293 (Simulation time: 0 hr 0 min 4 sec) 
Heartbeat CPU  0 instructions:    4000000 cycles:    1992095 heartbeat IPC: 1.99311 cumulative IPC: 2.00794 (Simulation time: 0 hr 0 min 5 sec) 
Heartbeat CPU  0 instructions:    5000000 cycles:    2494086 heartbeat IPC: 1.99207 cumulative IPC: 2.00474 (Simulation time: 0 hr 0 min 7 sec) 
Heartbeat CPU  0 instructions:    6000001 cycles:    2995906 heartbeat IPC: 1.99275 cumulative IPC: 2.00273 (Simulation time: 0 hr 0 min 8 sec) 
Heartbeat CPU  0 instructions:    7000000 cycles:    3482614 heartbeat IPC: 2.05462 cumulative IPC: 2.00998 (Simulation time: 0 hr 0 min 9 sec) 
Heartbeat CPU  0 instructions:    8000000 cycles:    3984288 heartbeat IPC: 1.99333 cumulative IPC: 2.00789 (Simulation time: 0 hr 0 min 11 sec) 
Heartbeat CPU  0 instructions:    9000001 cycles:    4485418 heartbeat IPC: 1.99549 cumulative IPC: 2.00650 (Simulation time: 0 hr 0 min 12 sec) 
Heartbeat CPU  0 instructions:   10000000 cycles:    4987337 heartbeat IPC: 1.99235 cumulative IPC: 2.00508 (Simulation time: 0 hr 0 min 14 sec) 
Heartbeat CPU  0 instructions:   11000001 cycles:    5481189 heartbeat IPC: 2.02490 cumulative IPC: 2.00686 (Simulation time: 0 hr 0 min 15 sec) 
Heartbeat CPU  0 instructions:   12000000 cycles:    5975995 heartbeat IPC: 2.02099 cumulative IPC: 2.00803 (Simulation time: 0 hr 0 min 16 sec) 
Heartbeat CPU  0 instructions:   13000003 cycles:    6477507 heartbeat IPC: 1.99398 cumulative IPC: 2.00695 (Simulation time: 0 hr 0 min 18 sec) 
Heartbeat CPU  0 instructions:   14000001 cycles:    6978992 heartbeat IPC: 1.99407 cumulative IPC: 2.00602 (Simulation time: 0 hr 0 min 19 sec) 
Heartbeat CPU  0 instructions:   15000003 cycles:    7480693 heartbeat IPC: 1.99322 cumulative IPC: 2.00516 (Simulation time: 0 hr 0 min 20 sec) 
Heartbeat CPU  0 instructions:   16000000 cycles:    7967759 heartbeat IPC: 2.05310 cumulative IPC: 2.00809 (Simulation time: 0 hr 0 min 22 sec) 
Heartbeat CPU  0 instructions:   17000001 cycles:    8469436 heartbeat IPC: 1.99332 cumulative IPC: 2.00722 (Simulation time: 0 hr 0 min 23 sec) 
Heartbeat CPU  0 instructions:   18000001 cycles:    8970777 heartbeat IPC: 1.99465 cumulative IPC: 2.00652 (Simulation time: 0 hr 0 min 24 sec) 
Heartbeat CPU  0 instructions:   19000003 cycles:    9471861 heartbeat IPC: 1.99568 cumulative IPC: 2.00594 (Simulation time: 0 hr 0 min 26 sec) 
Heartbeat CPU  0 instructions:   20000000 cycles:    9968610 heartbeat IPC: 2.01308 cumulative IPC: 2.00630 (Simulation time: 0 hr 0 min 27 sec) 
Heartbeat CPU  0 instructions:   21000001 cycles:   10460578 heartbeat IPC: 2.03265 cumulative IPC: 2.00754 (Simulation time: 0 hr 0 min 29 sec) 
Heartbeat CPU  0 instructions:   22000003 cycles:   10962543 heartbeat IPC: 1.99217 cumulative IPC: 2.00683 (Simulation time: 0 hr 0 min 30 sec) 
Heartbeat CPU  0 instructions:   23000001 cycles:   11464708 heartbeat IPC: 1.99137 cumulative IPC: 2.00616 (Simulation time: 0 hr 0 min 31 sec) 
Heartbeat CPU  0 instructions:   24000000 cycles:   11966073 heartbeat IPC: 1.99455 cumulative IPC: 2.00567 (Simulation time: 0 hr 0 min 33 sec) 
Heartbeat CPU  0 instructions:   25000003 cycles:   12452683 heartbeat IPC: 2.05504 cumulative IPC: 2.00760 (Simulation time: 0 hr 0 min 34 sec) 
Heartbeat CPU  0 instructions:   26000001 cycles:   12954588 heartbeat IPC: 1.99240 cumulative IPC: 2.00701 (Simulation time: 0 hr 0 min 35 sec) 
Heartbeat CPU  0 instructions:   27000003 cycles:   13456697 heartbeat IPC: 1.99160 cumulative IPC: 2.00644 (Simulation time: 0 hr 0 min 37 sec) 
Heartbeat CPU  0 instructions:   28000000 cycles:   13958548 heartbeat IPC: 1.99262 cumulative IPC: 2.00594 (Simulation time: 0 hr 0 min 38 sec) 
Heartbeat CPU  0 instructions:   29000002 cycles:   14455921 heartbeat IPC: 2.01057 cumulative IPC: 2.00610 (Simulation time: 0 hr 0 min 40 sec) 
Heartbeat CPU  0 instructions:   30000000 cycles:   14946469 heartbeat IPC: 2.03853 cumulative IPC: 2.00716 (Simulation time: 0 hr 0 min 41 sec) 
Heartbeat CPU  0 instructions:   31000002 cycles:   15448244 heartbeat IPC: 1.99293 cumulative IPC: 2.00670 (Simulation time: 0 hr 0 min 42 sec) 
Heartbeat CPU  0 instructions:   32000000 cycles:   15949709 heartbeat IPC: 1.99415 cumulative IPC: 2.00631 (Simulation time: 0 hr 0 min 44 sec) 
Heartbeat CPU  0 instructions:   33000001 cycles:   16451660 heartbeat IPC: 1.99223 cumulative IPC: 2.00588 (Simulation time: 0 hr 0 min 45 sec) 
Heartbeat CPU  0 instructions:   34000003 cycles:   16940066 heartbeat IPC: 2.04748 cumulative IPC: 2.00708 (Simulation time: 0 hr 0 min 46 sec) 
Heartbeat CPU  0 instructions:   35000000 cycles:   17439541 heartbeat IPC: 2.00210 cumulative IPC: 2.00693 (Simulation time: 0 hr 0 min 48 sec) 
Heartbeat CPU  0 instructions:   36000000 cycles:   17940953 heartbeat IPC: 1.99437 cumulative IPC: 2.00658 (Simulation time: 0 hr 0 min 49 sec) 
Heartbeat CPU  0 instructions:   37000003 cycles:   18442738 heartbeat IPC: 1.99289 cumulative IPC: 2.00621 (Simulation time: 0 hr 0 min 50 sec) 
Heartbeat CPU  0 instructions:   38000003 cycles:   18943457 heartbeat IPC: 1.99713 cumulative IPC: 2.00597 (Simulation time: 0 hr 0 min 52 sec) 
Heartbeat CPU  0 instructions:   39000003 cycles:   19430597 heartbeat IPC: 2.05280 cumulative IPC: 2.00714 (Simulation time: 0 hr 0 min 53 sec) 
Heartbeat CPU  0 instructions:   40000000 cycles:   19931769 heartbeat IPC: 1.99532 cumulative IPC: 2.00685 (Simulation time: 0 hr 0 min 54 sec) 
Heartbeat CPU  0 instructions:   41000001 cycles:   20433762 heartbeat IPC: 1.99206 cumulative IPC: 2.00648 (Simulation time: 0 hr 0 min 56 sec) 
Heartbeat CPU  0 instructions:   42000002 cycles:   20935735 heartbeat IPC: 1.99214 cumulative IPC: 2.00614 (Simulation time: 0 hr 0 min 57 sec) 
Heartbeat CPU  0 instructions:   43000003 cycles:   21427125 heartbeat IPC: 2.03505 cumulative IPC: 2.00680 (Simulation time: 0 hr 0 min 59 sec) 
Heartbeat CPU  0 instructions:   44000000 cycles:   21923923 heartbeat IPC: 2.01288 cumulative IPC: 2.00694 (Simulation time: 0 hr 1 min 0 sec) 
Heartbeat CPU  0 instructions:   45000001 cycles:   22425825 heartbeat IPC: 1.99242 cumulative IPC: 2.00662 (Simulation time: 0 hr 1 min 1 sec) 
Heartbeat CPU  0 instructions:   46000000 cycles:   22927419 heartbeat IPC: 1.99364 cumulative IPC: 2.00633 (Simulation time: 0 hr 1 min 3 sec) 
Heartbeat CPU  0 instructions:   47000002 cycles:   23429343 heartbeat IPC: 1.99234 cumulative IPC: 2.00603 (Simulation time: 0 hr 1 min 4 sec) 
Heartbeat CPU  0 instructions:   48000000 cycles:   23915876 heartbeat IPC: 2.05535 cumulative IPC: 2.00704 (Simulation time: 0 hr 1 min 5 sec) 
Heartbeat CPU  0 instructions:   49000002 cycles:   24417652 heartbeat IPC: 1.99293 cumulative IPC: 2.00675 (Simulation time: 0 hr 1 min 7 sec) 
Heartbeat CPU  0 instructions:   50000003 cycles:   24918919 heartbeat IPC: 1.99495 cumulative IPC: 2.00651 (Simulation time: 0 hr 1 min 8 sec) 
Heartbeat CPU  0 instructions:   51000003 cycles:   25420454 heartbeat IPC: 1.99388 cumulative IPC: 2.00626 (Simulation time: 0 hr 1 min 10 sec) 
Heartbeat CPU  0 instructions:   52000000 cycles:   25913971 heartbeat IPC: 2.02627 cumulative IPC: 2.00664 (Simulation time: 0 hr 1 min 11 sec) 
Heartbeat CPU  0 instructions:   53000001 cycles:   26408950 heartbeat IPC: 2.02029 cumulative IPC: 2.00690 (Simulation time: 0 hr 1 min 12 sec) 
Heartbeat CPU  0 instructions:   54000003 cycles:   26910534 heartbeat IPC: 1.99369 cumulative IPC: 2.00665 (Simulation time: 0 hr 1 min 14 sec) 
Heartbeat CPU  0 instructions:   55000000 cycles:   27412029 heartbeat IPC: 1.99403 cumulative IPC: 2.00642 (Simulation time: 0 hr 1 min 15 sec) 
Heartbeat CPU  0 instructions:   56000000 cycles:   27913452 heartbeat IPC: 1.99432 cumulative IPC: 2.00620 (Simulation time: 0 hr 1 min 16 sec) 
Heartbeat CPU  0 instructions:   57000002 cycles:   28400433 heartbeat IPC: 2.05347 cumulative IPC: 2.00701 (Simulation time: 0 hr 1 min 18 sec) 
Heartbeat CPU  0 instructions:   58000003 cycles:   28902059 heartbeat IPC: 1.99352 cumulative IPC: 2.00678 (Simulation time: 0 hr 1 min 19 sec) 
Heartbeat CPU  0 instructions:   59000001 cycles:   29403743 heartbeat IPC: 1.99328 cumulative IPC: 2.00655 (Simulation time: 0 hr 1 min 20 sec) 
Heartbeat CPU  0 instructions:   60000000 cycles:   29904764 heartbeat IPC: 1.99592 cumulative IPC: 2.00637 (Simulation time: 0 hr 1 min 22 sec) 
Heartbeat CPU  0 instructions:   61000000 cycles:   30400713 heartbeat IPC: 2.01634 cumulative IPC: 2.00653 (Simulation time: 0 hr 1 min 23 sec) 
Heartbeat CPU  0 instructions:   62000001 cycles:   30893102 heartbeat IPC: 2.03092 cumulative IPC: 2.00692 (Simulation time: 0 hr 1 min 25 sec) 
Heartbeat CPU  0 instructions:   63000001 cycles:   31394986 heartbeat IPC: 1.99249 cumulative IPC: 2.00669 (Simulation time: 0 hr 1 min 26 sec) 
Heartbeat CPU  0 instructions:   64000000 cycles:   31897149 heartbeat IPC: 1.99138 cumulative IPC: 2.00645 (Simulation time: 0 hr 1 min 27 sec) 
Heartbeat CPU  0 instructions:   65000000 cycles:   32398623 heartbeat IPC: 1.99412 cumulative IPC: 2.00626 (Simulation time: 0 hr 1 min 29 sec) 
Heartbeat CPU  0 instructions:   66000003 cycles:   32884875 heartbeat IPC: 2.05655 cumulative IPC: 2.00700 (Simulation time: 0 hr 1 min 31 sec) 
Heartbeat CPU  0 instructions:   67000000 cycles:   33386926 heartbeat IPC: 1.99182 cumulative IPC: 2.00677 (Simulation time: 0 hr 1 min 32 sec) 
Heartbeat CPU  0 instructions:   68000000 cycles:   33888802 heartbeat IPC: 1.99252 cumulative IPC: 2.00656 (Simulation time: 0 hr 1 min 33 sec) 
Heartbeat CPU  0 instructions:   69000001 cycles:   34390940 heartbeat IPC: 1.99149 cumulative IPC: 2.00634 (Simulation time: 0 hr 1 min 35 sec) 
Heartbeat CPU  0 instructions:   70000000 cycles:   34888054 heartbeat IPC: 2.01161 cumulative IPC: 2.00642 (Simulation time: 0 hr 1 min 36 sec) 
Heartbeat CPU  0 instructions:   71000001 cycles:   35378425 heartbeat IPC: 2.03927 cumulative IPC: 2.00687 (Simulation time: 0 hr 1 min 37 sec) 
Heartbeat CPU  0 instructions:   72000000 cycles:   35880659 heartbeat IPC: 1.99110 cumulative IPC: 2.00665 (Simulation time: 0 hr 1 min 39 sec) 
Heartbeat CPU  0 instructions:   73000002 cycles:   36381983 heartbeat IPC: 1.99472 cumulative IPC: 2.00649 (Simulation time: 0 hr 1 min 40 sec) 
Heartbeat CPU  0 instructions:   74000003 cycles:   36883803 heartbeat IPC: 1.99275 cumulative IPC: 2.00630 (Simulation time: 0 hr 1 min 42 sec) 
Heartbeat CPU  0 instructions:   75000001 cycles:   37372278 heartbeat IPC: 2.04718 cumulative IPC: 2.00684 (Simulation time: 0 hr 1 min 43 sec) 
Heartbeat CPU  0 instructions:   76000000 cycles:   37871695 heartbeat IPC: 2.00233 cumulative IPC: 2.00678 (Simulation time: 0 hr 1 min 44 sec) 
Heartbeat CPU  0 instructions:   77000000 cycles:   38373609 heartbeat IPC: 1.99237 cumulative IPC: 2.00659 (Simulation time: 0 hr 1 min 46 sec) 
Heartbeat CPU  0 instructions:   78000003 cycles:   38875178 heartbeat IPC: 1.99375 cumulative IPC: 2.00642 (Simulation time: 0 hr 1 min 47 sec) 
Heartbeat CPU  0 instructions:   79000001 cycles:   39375518 heartbeat IPC: 1.99864 cumulative IPC: 2.00632 (Simulation time: 0 hr 1 min 49 sec) 
Heartbeat CPU  0 instructions:   80000000 cycles:   39864028 heartbeat IPC: 2.04704 cumulative IPC: 2.00682 (Simulation time: 0 hr 1 min 50 sec) 
Heartbeat CPU  0 instructions:   81000003 cycles:   40364952 heartbeat IPC: 1.99632 cumulative IPC: 2.00669 (Simulation time: 0 hr 1 min 51 sec) 
Heartbeat CPU  0 instructions:   82000003 cycles:   40866563 heartbeat IPC: 1.99358 cumulative IPC: 2.00653 (Simulation time: 0 hr 1 min 53 sec) 
Heartbeat CPU  0 instructions:   83000001 cycles:   41368457 heartbeat IPC: 1.99245 cumulative IPC: 2.00636 (Simulation time: 0 hr 1 min 54 sec) 
Heartbeat CPU  0 instructions:   84000000 cycles:   41859707 heartbeat IPC: 2.03562 cumulative IPC: 2.00670 (Simulation time: 0 hr 1 min 55 sec) 
Heartbeat CPU  0 instructions:   85000002 cycles:   42357206 heartbeat IPC: 2.01006 cumulative IPC: 2.00674 (Simulation time: 0 hr 1 min 57 sec) 
Heartbeat CPU  0 instructions:   86000002 cycles:   42859054 heartbeat IPC: 1.99264 cumulative IPC: 2.00658 (Simulation time: 0 hr 1 min 58 sec) 
Heartbeat CPU  0 instructions:   87000002 cycles:   43360724 heartbeat IPC: 1.99334 cumulative IPC: 2.00642 (Simulation time: 0 hr 2 min 0 sec) 
Heartbeat CPU  0 instructions:   88000000 cycles:   43862674 heartbeat IPC: 1.99223 cumulative IPC: 2.00626 (Simulation time: 0 hr 2 min 1 sec) 
Heartbeat CPU  0 instructions:   89000003 cycles:   44349372 heartbeat IPC: 2.05467 cumulative IPC: 2.00679 (Simulation time: 0 hr 2 min 2 sec) 
Heartbeat CPU  0 instructions:   90000002 cycles:   44851515 heartbeat IPC: 1.99146 cumulative IPC: 2.00662 (Simulation time: 0 hr 2 min 4 sec) 
Heartbeat CPU  0 instructions:   91000000 cycles:   45352937 heartbeat IPC: 1.99432 cumulative IPC: 2.00649 (Simulation time: 0 hr 2 min 5 sec) 
Heartbeat CPU  0 instructions:   92000000 cycles:   45854675 heartbeat IPC: 1.99307 cumulative IPC: 2.00634 (Simulation time: 0 hr 2 min 6 sec) 
Heartbeat CPU  0 instructions:   93000002 cycles:   46347625 heartbeat IPC: 2.02861 cumulative IPC: 2.00658 (Simulation time: 0 hr 2 min 8 sec) 
Heartbeat CPU  0 instructions:   94000003 cycles:   46843390 heartbeat IPC: 2.01709 cumulative IPC: 2.00669 (Simulation time: 0 hr 2 min 9 sec) 
Heartbeat CPU  0 instructions:   95000003 cycles:   47344999 heartbeat IPC: 1.99358 cumulative IPC: 2.00655 (Simulation time: 0 hr 2 min 10 sec) 
Heartbeat CPU  0 instructions:   96000000 cycles:   47846726 heartbeat IPC: 1.99311 cumulative IPC: 2.00641 (Simulation time: 0 hr 2 min 12 sec) 
Heartbeat CPU  0 instructions:   97000000 cycles:   48348109 heartbeat IPC: 1.99448 cumulative IPC: 2.00628 (Simulation time: 0 hr 2 min 13 sec) 
Heartbeat CPU  0 instructions:   98000000 cycles:   48834821 heartbeat IPC: 2.05460 cumulative IPC: 2.00676 (Simulation time: 0 hr 2 min 15 sec) 
Heartbeat CPU  0 instructions:   99000002 cycles:   49336650 heartbeat IPC: 1.99271 cumulative IPC: 2.00662 (Simulation time: 0 hr 2 min 16 sec) 
Heartbeat CPU  0 instructions:  100000000 cycles:   49838329 heartbeat IPC: 1.99330 cumulative IPC: 2.00649 (Simulation time: 0 hr 2 min 17 sec) 

Warmup complete CPU  0 instructions:  100000003 cycles:   49838330 (Simulation time: 0 hr 2 min 17 sec) 

Heartbeat CPU  0 instructions:  101000001 cycles:   50684518 heartbeat IPC: 1.18177 cumulative IPC: 1.18177 (Simulation time: 0 hr 2 min 19 sec) 
Heartbeat CPU  0 instructions:  102000002 cycles:   51539544 heartbeat IPC: 1.16956 cumulative IPC: 1.17563 (Simulation time: 0 hr 2 min 20 sec) 
Heartbeat CPU  0 instructions:  103000002 cycles:   52406702 heartbeat IPC: 1.15319 cumulative IPC: 1.16805 (Simulation time: 0 hr 2 min 22 sec) 
Heartbeat CPU  0 instructions:  104000000 cycles:   53271174 heartbeat IPC: 1.15677 cumulative IPC: 1.16521 (Simulation time: 0 hr 2 min 23 sec) 
Heartbeat CPU  0 instructions:  105000000 cycles:   54112720 heartbeat IPC: 1.18829 cumulative IPC: 1.16976 (Simulation time: 0 hr 2 min 25 sec) 
Heartbeat CPU  0 instructions:  106000001 cycles:   54959440 heartbeat IPC: 1.18103 cumulative IPC: 1.17162 (Simulation time: 0 hr 2 min 27 sec) 
Heartbeat CPU  0 instructions:  107000002 cycles:   55821135 heartbeat IPC: 1.16050 cumulative IPC: 1.17002 (Simulation time: 0 hr 2 min 28 sec) 
Heartbeat CPU  0 instructions:  108000000 cycles:   56679307 heartbeat IPC: 1.16527 cumulative IPC: 1.16942 (Simulation time: 0 hr 2 min 30 sec) 
Heartbeat CPU  0 instructions:  109000003 cycles:   57542705 heartbeat IPC: 1.15822 cumulative IPC: 1.16817 (Simulation time: 0 hr 2 min 31 sec) 
Heartbeat CPU  0 instructions:  110000001 cycles:   58391113 heartbeat IPC: 1.17868 cumulative IPC: 1.16921 (Simulation time: 0 hr 2 min 33 sec) 
Heartbeat CPU  0 instructions:  111000003 cycles:   59233575 heartbeat IPC: 1.18700 cumulative IPC: 1.17080 (Simulation time: 0 hr 2 min 34 sec) 
Heartbeat CPU  0 instructions:  112000000 cycles:   60096488 heartbeat IPC: 1.15886 cumulative IPC: 1.16980 (Simulation time: 0 hr 2 min 36 sec) 
Heartbeat CPU  0 instructions:  113000001 cycles:   60954317 heartbeat IPC: 1.16573 cumulative IPC: 1.16949 (Simulation time: 0 hr 2 min 37 sec) 
Heartbeat CPU  0 instructions:  114000002 cycles:   61815789 heartbeat IPC: 1.16080 cumulative IPC: 1.16886 (Simulation time: 0 hr 2 min 39 sec) 
Heartbeat CPU  0 instructions:  115000000 cycles:   62669169 heartbeat IPC: 1.17181 cumulative IPC: 1.16906 (Simulation time: 0 hr 2 min 40 sec) 
Heartbeat CPU  0 instructions:  116000000 cycles:   63518976 heartbeat IPC: 1.17674 cumulative IPC: 1.16954 (Simulation time: 0 hr 2 min 43 sec) 
Heartbeat CPU  0 instructions:  117000002 cycles:   64372621 heartbeat IPC: 1.17145 cumulative IPC: 1.16965 (Simulation time: 0 hr 2 min 44 sec) 
Heartbeat CPU  0 instructions:  118000001 cycles:   65226111 heartbeat IPC: 1.17166 cumulative IPC: 1.16976 (Simulation time: 0 hr 2 min 46 sec) 
Heartbeat CPU  0 instructions:  119000002 cycles:   66087957 heartbeat IPC: 1.16030 cumulative IPC: 1.16926 (Simulation time: 0 hr 2 min 47 sec) 
Heartbeat CPU  0 instructions:  120000000 cycles:   66945831 heartbeat IPC: 1.16567 cumulative IPC: 1.16908 (Simulation time: 0 hr 2 min 49 sec) 
Heartbeat CPU  0 instructions:  121000001 cycles:   67793169 heartbeat IPC: 1.18017 cumulative IPC: 1.16960 (Simulation time: 0 hr 2 min 50 sec) 
Heartbeat CPU  0 instructions:  122000002 cycles:   68642891 heartbeat IPC: 1.17686 cumulative IPC: 1.16993 (Simulation time: 0 hr 2 min 52 sec) 
Heartbeat CPU  0 instructions:  123000001 cycles:   69494305 heartbeat IPC: 1.17452 cumulative IPC: 1.17013 (Simulation time: 0 hr 2 min 53 sec) 
Heartbeat CPU  0 instructions:  124000000 cycles:   70358595 heartbeat IPC: 1.15702 cumulative IPC: 1.16958 (Simulation time: 0 hr 2 min 55 sec) 
Heartbeat CPU  0 instructions:  125000000 cycles:   71230175 heartbeat IPC: 1.14734 cumulative IPC: 1.16867 (Simulation time: 0 hr 2 min 56 sec) 
Heartbeat CPU  0 instructions:  126000000 cycles:   72069042 heartbeat IPC: 1.19208 cumulative IPC: 1.16955 (Simulation time: 0 hr 2 min 58 sec) 
Heartbeat CPU  0 instructions:  127000000 cycles:   72918558 heartbeat IPC: 1.17714 cumulative IPC: 1.16983 (Simulation time: 0 hr 2 min 59 sec) 
Heartbeat CPU  0 instructions:  128000000 cycles:   73768675 heartbeat IPC: 1.17631 cumulative IPC: 1.17006 (Simulation time: 0 hr 3 min 1 sec) 
Heartbeat CPU  0 instructions:  129000002 cycles:   74629270 heartbeat IPC: 1.16199 cumulative IPC: 1.16978 (Simulation time: 0 hr 3 min 3 sec) 
Heartbeat CPU  0 instructions:  130000002 cycles:   75504043 heartbeat IPC: 1.14315 cumulative IPC: 1.16887 (Simulation time: 0 hr 3 min 4 sec) 
Heartbeat CPU  0 instructions:  131000002 cycles:   76346841 heartbeat IPC: 1.18652 cumulative IPC: 1.16944 (Simulation time: 0 hr 3 min 6 sec) 
Heartbeat CPU  0 instructions:  132000000 cycles:   77191686 heartbeat IPC: 1.18365 cumulative IPC: 1.16987 (Simulation time: 0 hr 3 min 7 sec) 
Heartbeat CPU  0 instructions:  133000000 cycles:   78042305 heartbeat IPC: 1.17561 cumulative IPC: 1.17005 (Simulation time: 0 hr 3 min 9 sec) 
Heartbeat CPU  0 instructions:  134000000 cycles:   78905149 heartbeat IPC: 1.15896 cumulative IPC: 1.16972 (Simulation time: 0 hr 3 min 10 sec) 
Heartbeat CPU  0 instructions:  135000002 cycles:   79776112 heartbeat IPC: 1.14816 cumulative IPC: 1.16909 (Simulation time: 0 hr 3 min 12 sec) 
Heartbeat CPU  0 instructions:  136000000 cycles:   80620644 heartbeat IPC: 1.18409 cumulative IPC: 1.16950 (Simulation time: 0 hr 3 min 13 sec) 
Heartbeat CPU  0 instructions:  137000001 cycles:   81464397 heartbeat IPC: 1.18518 cumulative IPC: 1.16992 (Simulation time: 0 hr 3 min 15 sec) 
Heartbeat CPU  0 instructions:  138000003 cycles:   82315707 heartbeat IPC: 1.17466 cumulative IPC: 1.17005 (Simulation time: 0 hr 3 min 16 sec) 
Heartbeat CPU  0 instructions:  139000003 cycles:   83177259 heartbeat IPC: 1.16070 cumulative IPC: 1.16980 (Simulation time: 0 hr 3 min 18 sec) 
Heartbeat CPU  0 instructions:  140000000 cycles:   84045349 heartbeat IPC: 1.15195 cumulative IPC: 1.16935 (Simulation time: 0 hr 3 min 19 sec) 
Heartbeat CPU  0 instructions:  141000003 cycles:   84893482 heartbeat IPC: 1.17906 cumulative IPC: 1.16959 (Simulation time: 0 hr 3 min 21 sec) 
Heartbeat CPU  0 instructions:  142000000 cycles:   85731958 heartbeat IPC: 1.19264 cumulative IPC: 1.17012 (Simulation time: 0 hr 3 min 23 sec) 
Heartbeat CPU  0 instructions:  143000001 cycles:   86581844 heartbeat IPC: 1.17663 cumulative IPC: 1.17027 (Simulation time: 0 hr 3 min 24 sec) 
Heartbeat CPU  0 instructions:  144000000 cycles:   87442443 heartbeat IPC: 1.16198 cumulative IPC: 1.17008 (Simulation time: 0 hr 3 min 26 sec) 
Heartbeat CPU  0 instructions:  145000002 cycles:   88310039 heartbeat IPC: 1.15261 cumulative IPC: 1.16969 (Simulation time: 0 hr 3 min 27 sec) 
Heartbeat CPU  0 instructions:  146000002 cycles:   89166069 heartbeat IPC: 1.16818 cumulative IPC: 1.16966 (Simulation time: 0 hr 3 min 29 sec) 
Heartbeat CPU  0 instructions:  147000002 cycles:   90058221 heartbeat IPC: 1.12089 cumulative IPC: 1.16858 (Simulation time: 0 hr 3 min 30 sec) 
Heartbeat CPU  0 instructions:  148000000 cycles:   91213847 heartbeat IPC: 0.86533 cumulative IPC: 1.16011 (Simulation time: 0 hr 3 min 32 sec) 
Heartbeat CPU  0 instructions:  149000002 cycles:   92365458 heartbeat IPC: 0.86835 cumulative IPC: 1.15221 (Simulation time: 0 hr 3 min 34 sec) 
Heartbeat CPU  0 instructions:  150000002 cycles:   93508485 heartbeat IPC: 0.87487 cumulative IPC: 1.14495 (Simulation time: 0 hr 3 min 35 sec) 
Heartbeat CPU  0 instructions:  151000000 cycles:   94654771 heartbeat IPC: 0.87238 cumulative IPC: 1.13798 (Simulation time: 0 hr 3 min 37 sec) 
Heartbeat CPU  0 instructions:  152000000 cycles:   95803925 heartbeat IPC: 0.87021 cumulative IPC: 1.13128 (Simulation time: 0 hr 3 min 39 sec) 
Heartbeat CPU  0 instructions:  153000003 cycles:   96960538 heartbeat IPC: 0.86460 cumulative IPC: 1.12474 (Simulation time: 0 hr 3 min 40 sec) 
Heartbeat CPU  0 instructions:  154000002 cycles:   98118229 heartbeat IPC: 0.86379 cumulative IPC: 1.11848 (Simulation time: 0 hr 3 min 42 sec) 
Heartbeat CPU  0 instructions:  155000003 cycles:   99270426 heartbeat IPC: 0.86791 cumulative IPC: 1.11264 (Simulation time: 0 hr 3 min 44 sec) 
Heartbeat CPU  0 instructions:  156000000 cycles:  100424599 heartbeat IPC: 0.86642 cumulative IPC: 1.10702 (Simulation time: 0 hr 3 min 45 sec) 
Heartbeat CPU  0 instructions:  157000003 cycles:  101585713 heartbeat IPC: 0.86124 cumulative IPC: 1.10150 (Simulation time: 0 hr 3 min 47 sec) 
Heartbeat CPU  0 instructions:  158000003 cycles:  102739707 heartbeat IPC: 0.86656 cumulative IPC: 1.09638 (Simulation time: 0 hr 3 min 49 sec) 
Heartbeat CPU  0 instructions:  159000003 cycles:  103897649 heartbeat IPC: 0.86360 cumulative IPC: 1.09139 (Simulation time: 0 hr 3 min 50 sec) 
Heartbeat CPU  0 instructions:  160000000 cycles:  105052407 heartbeat IPC: 0.86598 cumulative IPC: 1.08668 (Simulation time: 0 hr 3 min 52 sec) 
Heartbeat CPU  0 instructions:  161000000 cycles:  106198746 heartbeat IPC: 0.87234 cumulative IPC: 1.08232 (Simulation time: 0 hr 3 min 54 sec) 
Heartbeat CPU  0 instructions:  162000000 cycles:  107353775 heartbeat IPC: 0.86578 cumulative IPC: 1.07797 (Simulation time: 0 hr 3 min 55 sec) 
Heartbeat CPU  0 instructions:  163000002 cycles:  108509054 heartbeat IPC: 0.86559 cumulative IPC: 1.07379 (Simulation time: 0 hr 3 min 57 sec) 
Heartbeat CPU  0 instructions:  164000000 cycles:  109657806 heartbeat IPC: 0.87051 cumulative IPC: 1.06989 (Simulation time: 0 hr 3 min 59 sec) 
Heartbeat CPU  0 instructions:  165000001 cycles:  110818872 heartbeat IPC: 0.86128 cumulative IPC: 1.06591 (Simulation time: 0 hr 4 min 0 sec) 
Heartbeat CPU  0 instructions:  166000001 cycles:  111972949 heartbeat IPC: 0.86649 cumulative IPC: 1.06221 (Simulation time: 0 hr 4 min 2 sec) 
Heartbeat CPU  0 instructions:  167000001 cycles:  113119880 heartbeat IPC: 0.87189 cumulative IPC: 1.05876 (Simulation time: 0 hr 4 min 4 sec) 
Heartbeat CPU  0 instructions:  168000000 cycles:  114264593 heartbeat IPC: 0.87358 cumulative IPC: 1.05547 (Simulation time: 0 hr 4 min 5 sec) 
Heartbeat CPU  0 instructions:  169000002 cycles:  115416311 heartbeat IPC: 0.86827 cumulative IPC: 1.05218 (Simulation time: 0 hr 4 min 7 sec) 
Heartbeat CPU  0 instructions:  170000002 cycles:  116577414 heartbeat IPC: 0.86125 cumulative IPC: 1.04886 (Simulation time: 0 hr 4 min 9 sec) 
Heartbeat CPU  0 instructions:  171000002 cycles:  117732155 heartbeat IPC: 0.86600 cumulative IPC: 1.04575 (Simulation time: 0 hr 4 min 10 sec) 
Heartbeat CPU  0 instructions:  172000000 cycles:  118886656 heartbeat IPC: 0.86617 cumulative IPC: 1.04275 (Simulation time: 0 hr 4 min 12 sec) 
Heartbeat CPU  0 instructions:  173000002 cycles:  120035923 heartbeat IPC: 0.87012 cumulative IPC: 1.03992 (Simulation time: 0 hr 4 min 14 sec) 
Heartbeat CPU  0 instructions:  174000002 cycles:  121194817 heartbeat IPC: 0.86289 cumulative IPC: 1.03705 (Simulation time: 0 hr 4 min 15 sec) 
Heartbeat CPU  0 instructions:  175000002 cycles:  122350491 heartbeat IPC: 0.86530 cumulative IPC: 1.03431 (Simulation time: 0 hr 4 min 17 sec) 
Heartbeat CPU  0 instructions:  176000000 cycles:  123501590 heartbeat IPC: 0.86873 cumulative IPC: 1.03172 (Simulation time: 0 hr 4 min 19 sec) 
Heartbeat CPU  0 instructions:  177000003 cycles:  124652133 heartbeat IPC: 0.86916 cumulative IPC: 1.02922 (Simulation time: 0 hr 4 min 21 sec) 
Heartbeat CPU  0 instructions:  178000000 cycles:  125803734 heartbeat IPC: 0.86835 cumulative IPC: 1.02678 (Simulation time: 0 hr 4 min 22 sec) 
Heartbeat CPU  0 instructions:  179000002 cycles:  126961490 heartbeat IPC: 0.86374 cumulative IPC: 1.02434 (Simulation time: 0 hr 4 min 24 sec) 
Heartbeat CPU  0 instructions:  180000000 cycles:  128121857 heartbeat IPC: 0.86179 cumulative IPC: 1.02193 (Simulation time: 0 hr 4 min 26 sec) 
Heartbeat CPU  0 instructions:  181000003 cycles:  129287107 heartbeat IPC: 0.85819 cumulative IPC: 1.01952 (Simulation time: 0 hr 4 min 27 sec) 
Heartbeat CPU  0 instructions:  182000002 cycles:  130431811 heartbeat IPC: 0.87359 cumulative IPC: 1.01745 (Simulation time: 0 hr 4 min 29 sec) 
Heartbeat CPU  0 instructions:  183000000 cycles:  131590124 heartbeat IPC: 0.86332 cumulative IPC: 1.01527 (Simulation time: 0 hr 4 min 31 sec) 
Heartbeat CPU  0 instructions:  184000000 cycles:  132740556 heartbeat IPC: 0.86924 cumulative IPC: 1.01324 (Simulation time: 0 hr 4 min 32 sec) 
Heartbeat CPU  0 instructions:  185000003 cycles:  133890727 heartbeat IPC: 0.86944 cumulative IPC: 1.01127 (Simulation time: 0 hr 4 min 34 sec) 
Heartbeat CPU  0 instructions:  186000001 cycles:  135047001 heartbeat IPC: 0.86485 cumulative IPC: 1.00929 (Simulation time: 0 hr 4 min 36 sec) 
Heartbeat CPU  0 instructions:  187000002 cycles:  136205781 heartbeat IPC: 0.86298 cumulative IPC: 1.00732 (Simulation time: 0 hr 4 min 37 sec) 
Heartbeat CPU  0 instructions:  188000000 cycles:  137356118 heartbeat IPC: 0.86931 cumulative IPC: 1.00551 (Simulation time: 0 hr 4 min 39 sec) 
Heartbeat CPU  0 instructions:  189000001 cycles:  138515994 heartbeat IPC: 0.86216 cumulative IPC: 1.00363 (Simulation time: 0 hr 4 min 41 sec) 
Heartbeat CPU  0 instructions:  190000003 cycles:  139675452 heartbeat IPC: 0.86247 cumulative IPC: 1.00181 (Simulation time: 0 hr 4 min 42 sec) 
Heartbeat CPU  0 instructions:  191000002 cycles:  140833032 heartbeat IPC: 0.86387 cumulative IPC: 1.00006 (Simulation time: 0 hr 4 min 44 sec) 
Heartbeat CPU  0 instructions:  192000000 cycles:  141993106 heartbeat IPC: 0.86201 cumulative IPC: 0.99832 (Simulation time: 0 hr 4 min 46 sec) 
Heartbeat CPU  0 instructions:  193000003 cycles:  143129623 heartbeat IPC: 0.87988 cumulative IPC: 0.99688 (Simulation time: 0 hr 4 min 47 sec) 
Heartbeat CPU  0 instructions:  194000001 cycles:  146748500 heartbeat IPC: 0.27633 cumulative IPC: 0.96997 (Simulation time: 0 hr 4 min 50 sec) 
Heartbeat CPU  0 instructions:  195000000 cycles:  149314433 heartbeat IPC: 0.38972 cumulative IPC: 0.95500 (Simulation time: 0 hr 4 min 53 sec) 
Heartbeat CPU  0 instructions:  196000000 cycles:  150044892 heartbeat IPC: 1.36900 cumulative IPC: 0.95802 (Simulation time: 0 hr 4 min 54 sec) 
Heartbeat CPU  0 instructions:  197000000 cycles:  150787972 heartbeat IPC: 1.34575 cumulative IPC: 0.96088 (Simulation time: 0 hr 4 min 56 sec) 
Heartbeat CPU  0 instructions:  198000003 cycles:  151521342 heartbeat IPC: 1.36357 cumulative IPC: 0.96378 (Simulation time: 0 hr 4 min 58 sec) 
Heartbeat CPU  0 instructions:  199000002 cycles:  152252085 heartbeat IPC: 1.36847 cumulative IPC: 0.96667 (Simulation time: 0 hr 4 min 59 sec) 
Heartbeat CPU  0 instructions:  200000000 cycles:  152979237 heartbeat IPC: 1.37523 cumulative IPC: 0.96955 (Simulation time: 0 hr 5 min 1 sec) 
Finished CPU 0 instructions: 100000000 cycles: 103140936 cumulative IPC: 0.96955 (Simulation time: 0 hr 5 min 1 sec) 

ChampSim completed all CPUs

[ROI Statistics]
Core_0_instructions 100000000
Core_0_cycles 103140936
Core_0_IPC 0.96955

Core_0_branch_prediction_accuracy 99.15344
Core_0_branch_MPKI 0.35029
Core_0_average_ROB_occupancy_at_mispredict 249.75309

Core_0_L1D_total_access 27510782
Core_0_L1D_total_hit 26068967
Core_0_L1D_total_miss 1441815
Core_0_L1D_loads 23043604
Core_0_L1D_load_hit 21938788
Core_0_L1D_load_miss 1104816
Core_0_L1D_RFOs 4467178
Core_0_L1D_RFO_hit 4130179
Core_0_L1D_RFO_miss 336999
Core_0_L1D_prefetches 0
Core_0_L1D_prefetch_hit 0
Core_0_L1D_prefetch_miss 0
Core_0_L1D_writebacks 0
Core_0_L1D_writeback_hit 0
Core_0_L1D_writeback_miss 0
Core_0_L1D_prefetch_requested 0
Core_0_L1D_prefetch_issued 0
Core_0_L1D_prefetch_useful 0
Core_0_L1D_prefetch_useless 0
Core_0_L1D_prefetch_late 0
Core_0_L1D_average_miss_latency 65.61529

Core_0_L1I_total_access 22670064
Core_0_L1I_total_hit 22669844
Core_0_L1I_total_miss 220
Core_0_L1I_loads 22670064
Core_0_L1I_load_hit 22669844
Core_0_L1I_load_miss 220
Core_0_L1I_RFOs 0
Core_0_L1I_RFO_hit 0
Core_0_L1I_RFO_miss 0
Core_0_L1I_prefetches 0
Core_0_L1I_prefetch_hit 0
Core_0_L1I_prefetch_miss 0
Core_0_L1I_writebacks 0
Core_0_L1I_writeback_hit 0
Core_0_L1I_writeback_miss 0
Core_0_L1I_prefetch_requested 0
Core_0_L1I_prefetch_issued 0
Core_0_L1I_prefetch_useful 0
Core_0_L1I_prefetch_useless 0
Core_0_L1I_prefetch_late 0
Core_0_L1I_average_miss_latency 213.44545

Core_0_L2C_total_access 4109184
Core_0_L2C_total_hit 3060513
Core_0_L2C_total_miss 1048671
Core_0_L2C_loads 1105031
Core_0_L2C_load_hit 916995
Core_0_L2C_load_miss 188036
Core_0_L2C_RFOs 336946
Core_0_L2C_RFO_hit 119580
Core_0_L2C_RFO_miss 217366
Core_0_L2C_prefetches 2114070
Core_0_L2C_prefetch_hit 1471027
Core_0_L2C_prefetch_miss 643043
Core_0_L2C_writebacks 553137
Core_0_L2C_writeback_hit 552911
Core_0_L2C_writeback_miss 226
Core_0_L2C_prefetch_requested 5115609
Core_0_L2C_prefetch_issued 5106312
Core_0_L2C_prefetch_useful 1037063
Core_0_L2C_prefetch_useless 85945
Core_0_L2C_prefetch_late 65760
Core_0_L2C_average_miss_latency 144.95348

Core_0_LLC_total_access 1870148
Core_0_LLC_total_hit 718413
Core_0_LLC_total_miss 1151735
Core_0_LLC_loads 122276
Core_0_LLC_load_hit 70346
Core_0_LLC_load_miss 51930
Core_0_LLC_RFOs 217363
Core_0_LLC_RFO_hit 32146
Core_0_LLC_RFO_miss 185217
Core_0_LLC_prefetches 1122596
Core_0_LLC_prefetch_hit 417882
Core_0_LLC_prefetch_miss 704714
Core_0_LLC_writebacks 407913
Core_0_LLC_writeback_hit 198039
Core_0_LLC_writeback_miss 209874
Core_0_LLC_prefetch_requested 1214760
Core_0_LLC_prefetch_issued 1195482
Core_0_LLC_prefetch_useful 140680
Core_0_LLC_prefetch_useless 901763
Core_0_LLC_prefetch_late 5183
Core_0_LLC_average_miss_latency 201.53631

Core_0_major_page_fault 0
Core_0_minor_page_fault 15627

CPU 0 L2C PC-based stride prefetcher final stats
LLC Next Line Prefetcher Final Stats: none
Channel_0_RQ_row_buffer_hit 315409
Channel_0_RQ_row_buffer_miss 626411
Channel_0_WQ_row_buffer_hit 50705
Channel_0_WQ_row_buffer_miss 328898
Channel_0_WQ_full 0
Channel_0_dbus_congested 368208

avg_congested_cycle 9
