*************************************************
   ChampSim Multicore Out-of-Order Simulator
   Last compiled: Dec 23 2023 15:40:49
*************************************************

trace_0 ./test_trace/437.leslie3d-134B.champsimtrace.xz
CPU 0 L2C IP-based stride prefetcher
warmup_instructions 100000000
simulation_instructions 100000000
champsim_seed 218

num_cpus 1
cpu_freq 4000
dram_io_freq 2400
page_size 4096
block_size 64
max_read_per_cycle 8
max_fill_per_cycle 1
dram_channels 1
dram_ranks 1
dram_banks 8
dram_rows 65536
dram_columns 128
dram_row_size 8
dram_size 4096
dram_pages 1048576

fetch_width 6
decode_width 6
exec_width 4
lq_width 2
sq_width 2
retire_width 4
scheduler_size 128
branch_mispredict_penalty 20
rob_size 256
lq_size 72
sq_size 56
num_instr_destinations_sparc 4
num_instr_destinations 2
num_instr_sources 4

itlb_set 16
itlb_way 8
itlb_rq_size 16
itlb_wq_size 16
itlb_pq_size 0
itlb_mshr_size 8
itlb_latency 1

dtlb_set 16
dtlb_way 4
dtlb_rq_size 16
dtlb_wq_size 16
dtlb_pq_size 0
dtlb_mshr_size 8
dtlb_latency 1

stlb_set 128
stlb_way 12
stlb_rq_size 32
stlb_wq_size 32
stlb_pq_size 0
stlb_mshr_size 16
stlb_latency 8

l1i_size 32
l1i_set 64
l1i_way 8
l1i_rq_size 64
l1i_wq_size 64
l1i_pq_size 8
l1i_mshr_size 8
l1i_latency 1

l1d_size 32
l1d_set 64
l1d_way 8
l1d_rq_size 64
l1d_wq_size 64
l1d_pq_size 8
l1d_mshr_size 16
l1d_latency 4

l2c_size 512
l2c_set 1024
l2c_way 8
l2c_rq_size 32
l2c_wq_size 32
l2c_pq_size 16
l2c_mshr_size 32
l2c_latency 10

llc_size 2048
llc_set 2048
llc_way 16
llc_rq_size 32
llc_wq_size 32
llc_pq_size 32
llc_mshr_size 64
llc_latency 20

dram_channel_width 8
dram_wq_size 64
dram_rq_size 64
tRP 15
tRCD 15
tCAS 12.5
dram_dbus_turn_around_time 30
dram_write_high_wm 56
dram_write_low_wm 48
min_dram_writes_per_switch 16
dram_mtps 2400
dram_dbus_return_time 13


Heartbeat CPU  0 instructions:    1000002 cycles:     502293 heartbeat IPC: 1.99087 cumulative IPC: 1.99087 (Simulation time: 0 hr 0 min 2 sec) 
Heartbeat CPU  0 instructions:    2000001 cycles:     993775 heartbeat IPC: 2.03466 cumulative IPC: 2.01253 (Simulation time: 0 hr 0 min 3 sec) 
Heartbeat CPU  0 instructions:    3000001 cycles:    1490454 heartbeat IPC: 2.01337 cumulative IPC: 2.01281 (Simulation time: 0 hr 0 min 5 sec) 
Heartbeat CPU  0 instructions:    4000000 cycles:    1992198 heartbeat IPC: 1.99305 cumulative IPC: 2.00783 (Simulation time: 0 hr 0 min 6 sec) 
Heartbeat CPU  0 instructions:    5000000 cycles:    2494176 heartbeat IPC: 1.99212 cumulative IPC: 2.00467 (Simulation time: 0 hr 0 min 8 sec) 
Heartbeat CPU  0 instructions:    6000001 cycles:    2995990 heartbeat IPC: 1.99277 cumulative IPC: 2.00268 (Simulation time: 0 hr 0 min 10 sec) 
Heartbeat CPU  0 instructions:    7000000 cycles:    3482716 heartbeat IPC: 2.05454 cumulative IPC: 2.00993 (Simulation time: 0 hr 0 min 11 sec) 
Heartbeat CPU  0 instructions:    8000000 cycles:    3984432 heartbeat IPC: 1.99316 cumulative IPC: 2.00781 (Simulation time: 0 hr 0 min 13 sec) 
Heartbeat CPU  0 instructions:    9000001 cycles:    4485552 heartbeat IPC: 1.99553 cumulative IPC: 2.00644 (Simulation time: 0 hr 0 min 14 sec) 
Heartbeat CPU  0 instructions:   10000000 cycles:    4987495 heartbeat IPC: 1.99226 cumulative IPC: 2.00501 (Simulation time: 0 hr 0 min 16 sec) 
Heartbeat CPU  0 instructions:   11000001 cycles:    5481336 heartbeat IPC: 2.02495 cumulative IPC: 2.00681 (Simulation time: 0 hr 0 min 17 sec) 
Heartbeat CPU  0 instructions:   12000000 cycles:    5976142 heartbeat IPC: 2.02099 cumulative IPC: 2.00798 (Simulation time: 0 hr 0 min 18 sec) 
Heartbeat CPU  0 instructions:   13000003 cycles:    6477674 heartbeat IPC: 1.99390 cumulative IPC: 2.00689 (Simulation time: 0 hr 0 min 20 sec) 
Heartbeat CPU  0 instructions:   14000001 cycles:    6979190 heartbeat IPC: 1.99395 cumulative IPC: 2.00596 (Simulation time: 0 hr 0 min 21 sec) 
Heartbeat CPU  0 instructions:   15000003 cycles:    7480909 heartbeat IPC: 1.99315 cumulative IPC: 2.00510 (Simulation time: 0 hr 0 min 23 sec) 
Heartbeat CPU  0 instructions:   16000000 cycles:    7967959 heartbeat IPC: 2.05317 cumulative IPC: 2.00804 (Simulation time: 0 hr 0 min 24 sec) 
Heartbeat CPU  0 instructions:   17000001 cycles:    8469621 heartbeat IPC: 1.99338 cumulative IPC: 2.00717 (Simulation time: 0 hr 0 min 26 sec) 
Heartbeat CPU  0 instructions:   18000001 cycles:    8970950 heartbeat IPC: 1.99470 cumulative IPC: 2.00648 (Simulation time: 0 hr 0 min 27 sec) 
Heartbeat CPU  0 instructions:   19000003 cycles:    9472034 heartbeat IPC: 1.99568 cumulative IPC: 2.00591 (Simulation time: 0 hr 0 min 28 sec) 
Heartbeat CPU  0 instructions:   20000000 cycles:    9968753 heartbeat IPC: 2.01320 cumulative IPC: 2.00627 (Simulation time: 0 hr 0 min 30 sec) 
Heartbeat CPU  0 instructions:   21000001 cycles:   10460751 heartbeat IPC: 2.03253 cumulative IPC: 2.00750 (Simulation time: 0 hr 0 min 31 sec) 
Heartbeat CPU  0 instructions:   22000003 cycles:   10962736 heartbeat IPC: 1.99210 cumulative IPC: 2.00680 (Simulation time: 0 hr 0 min 33 sec) 
Heartbeat CPU  0 instructions:   23000001 cycles:   11464907 heartbeat IPC: 1.99135 cumulative IPC: 2.00612 (Simulation time: 0 hr 0 min 34 sec) 
Heartbeat CPU  0 instructions:   24000000 cycles:   11966289 heartbeat IPC: 1.99449 cumulative IPC: 2.00563 (Simulation time: 0 hr 0 min 36 sec) 
Heartbeat CPU  0 instructions:   25000003 cycles:   12452917 heartbeat IPC: 2.05496 cumulative IPC: 2.00756 (Simulation time: 0 hr 0 min 37 sec) 
Heartbeat CPU  0 instructions:   26000001 cycles:   12954832 heartbeat IPC: 1.99237 cumulative IPC: 2.00697 (Simulation time: 0 hr 0 min 39 sec) 
Heartbeat CPU  0 instructions:   27000003 cycles:   13456931 heartbeat IPC: 1.99164 cumulative IPC: 2.00640 (Simulation time: 0 hr 0 min 40 sec) 
Heartbeat CPU  0 instructions:   28000000 cycles:   13958784 heartbeat IPC: 1.99261 cumulative IPC: 2.00591 (Simulation time: 0 hr 0 min 41 sec) 
Heartbeat CPU  0 instructions:   29000002 cycles:   14456174 heartbeat IPC: 2.01050 cumulative IPC: 2.00606 (Simulation time: 0 hr 0 min 43 sec) 
Heartbeat CPU  0 instructions:   30000000 cycles:   14946710 heartbeat IPC: 2.03858 cumulative IPC: 2.00713 (Simulation time: 0 hr 0 min 44 sec) 
Heartbeat CPU  0 instructions:   31000002 cycles:   15448539 heartbeat IPC: 1.99271 cumulative IPC: 2.00666 (Simulation time: 0 hr 0 min 46 sec) 
Heartbeat CPU  0 instructions:   32000000 cycles:   15949990 heartbeat IPC: 1.99421 cumulative IPC: 2.00627 (Simulation time: 0 hr 0 min 47 sec) 
Heartbeat CPU  0 instructions:   33000001 cycles:   16451943 heartbeat IPC: 1.99222 cumulative IPC: 2.00584 (Simulation time: 0 hr 0 min 49 sec) 
Heartbeat CPU  0 instructions:   34000003 cycles:   16940369 heartbeat IPC: 2.04740 cumulative IPC: 2.00704 (Simulation time: 0 hr 0 min 50 sec) 
Heartbeat CPU  0 instructions:   35000000 cycles:   17439810 heartbeat IPC: 2.00223 cumulative IPC: 2.00690 (Simulation time: 0 hr 0 min 52 sec) 
Heartbeat CPU  0 instructions:   36000000 cycles:   17941252 heartbeat IPC: 1.99425 cumulative IPC: 2.00655 (Simulation time: 0 hr 0 min 53 sec) 
Heartbeat CPU  0 instructions:   37000003 cycles:   18443047 heartbeat IPC: 1.99285 cumulative IPC: 2.00618 (Simulation time: 0 hr 0 min 54 sec) 
Heartbeat CPU  0 instructions:   38000003 cycles:   18943724 heartbeat IPC: 1.99730 cumulative IPC: 2.00594 (Simulation time: 0 hr 0 min 56 sec) 
Heartbeat CPU  0 instructions:   39000003 cycles:   19430927 heartbeat IPC: 2.05253 cumulative IPC: 2.00711 (Simulation time: 0 hr 0 min 57 sec) 
Heartbeat CPU  0 instructions:   40000000 cycles:   19932108 heartbeat IPC: 1.99528 cumulative IPC: 2.00681 (Simulation time: 0 hr 0 min 59 sec) 
Heartbeat CPU  0 instructions:   41000001 cycles:   20434125 heartbeat IPC: 1.99197 cumulative IPC: 2.00645 (Simulation time: 0 hr 1 min 0 sec) 
Heartbeat CPU  0 instructions:   42000002 cycles:   20936146 heartbeat IPC: 1.99195 cumulative IPC: 2.00610 (Simulation time: 0 hr 1 min 2 sec) 
Heartbeat CPU  0 instructions:   43000003 cycles:   21427589 heartbeat IPC: 2.03483 cumulative IPC: 2.00676 (Simulation time: 0 hr 1 min 3 sec) 
Heartbeat CPU  0 instructions:   44000000 cycles:   21924367 heartbeat IPC: 2.01297 cumulative IPC: 2.00690 (Simulation time: 0 hr 1 min 5 sec) 
Heartbeat CPU  0 instructions:   45000001 cycles:   22426246 heartbeat IPC: 1.99251 cumulative IPC: 2.00658 (Simulation time: 0 hr 1 min 6 sec) 
Heartbeat CPU  0 instructions:   46000000 cycles:   22927862 heartbeat IPC: 1.99355 cumulative IPC: 2.00629 (Simulation time: 0 hr 1 min 7 sec) 
Heartbeat CPU  0 instructions:   47000002 cycles:   23429758 heartbeat IPC: 1.99245 cumulative IPC: 2.00600 (Simulation time: 0 hr 1 min 9 sec) 
Heartbeat CPU  0 instructions:   48000000 cycles:   23916301 heartbeat IPC: 2.05531 cumulative IPC: 2.00700 (Simulation time: 0 hr 1 min 11 sec) 
Heartbeat CPU  0 instructions:   49000002 cycles:   24418084 heartbeat IPC: 1.99290 cumulative IPC: 2.00671 (Simulation time: 0 hr 1 min 12 sec) 
Heartbeat CPU  0 instructions:   50000003 cycles:   24919311 heartbeat IPC: 1.99511 cumulative IPC: 2.00648 (Simulation time: 0 hr 1 min 13 sec) 
Heartbeat CPU  0 instructions:   51000003 cycles:   25420819 heartbeat IPC: 1.99399 cumulative IPC: 2.00623 (Simulation time: 0 hr 1 min 15 sec) 
Heartbeat CPU  0 instructions:   52000000 cycles:   25914347 heartbeat IPC: 2.02622 cumulative IPC: 2.00661 (Simulation time: 0 hr 1 min 16 sec) 
Heartbeat CPU  0 instructions:   53000001 cycles:   26409336 heartbeat IPC: 2.02025 cumulative IPC: 2.00687 (Simulation time: 0 hr 1 min 18 sec) 
Heartbeat CPU  0 instructions:   54000003 cycles:   26910936 heartbeat IPC: 1.99362 cumulative IPC: 2.00662 (Simulation time: 0 hr 1 min 19 sec) 
Heartbeat CPU  0 instructions:   55000000 cycles:   27412400 heartbeat IPC: 1.99416 cumulative IPC: 2.00639 (Simulation time: 0 hr 1 min 21 sec) 
Heartbeat CPU  0 instructions:   56000000 cycles:   27913811 heartbeat IPC: 1.99437 cumulative IPC: 2.00618 (Simulation time: 0 hr 1 min 22 sec) 
Heartbeat CPU  0 instructions:   57000002 cycles:   28400828 heartbeat IPC: 2.05332 cumulative IPC: 2.00698 (Simulation time: 0 hr 1 min 24 sec) 
Heartbeat CPU  0 instructions:   58000003 cycles:   28902457 heartbeat IPC: 1.99351 cumulative IPC: 2.00675 (Simulation time: 0 hr 1 min 25 sec) 
Heartbeat CPU  0 instructions:   59000001 cycles:   29404123 heartbeat IPC: 1.99335 cumulative IPC: 2.00652 (Simulation time: 0 hr 1 min 27 sec) 
Heartbeat CPU  0 instructions:   60000000 cycles:   29905136 heartbeat IPC: 1.99595 cumulative IPC: 2.00634 (Simulation time: 0 hr 1 min 28 sec) 
Heartbeat CPU  0 instructions:   61000000 cycles:   30401041 heartbeat IPC: 2.01652 cumulative IPC: 2.00651 (Simulation time: 0 hr 1 min 29 sec) 
Heartbeat CPU  0 instructions:   62000001 cycles:   30893484 heartbeat IPC: 2.03069 cumulative IPC: 2.00690 (Simulation time: 0 hr 1 min 31 sec) 
Heartbeat CPU  0 instructions:   63000001 cycles:   31395344 heartbeat IPC: 1.99259 cumulative IPC: 2.00667 (Simulation time: 0 hr 1 min 32 sec) 
Heartbeat CPU  0 instructions:   64000000 cycles:   31897539 heartbeat IPC: 1.99126 cumulative IPC: 2.00642 (Simulation time: 0 hr 1 min 34 sec) 
Heartbeat CPU  0 instructions:   65000000 cycles:   32399030 heartbeat IPC: 1.99405 cumulative IPC: 2.00623 (Simulation time: 0 hr 1 min 35 sec) 
Heartbeat CPU  0 instructions:   66000003 cycles:   32885258 heartbeat IPC: 2.05665 cumulative IPC: 2.00698 (Simulation time: 0 hr 1 min 37 sec) 
Heartbeat CPU  0 instructions:   67000000 cycles:   33387313 heartbeat IPC: 1.99181 cumulative IPC: 2.00675 (Simulation time: 0 hr 1 min 38 sec) 
Heartbeat CPU  0 instructions:   68000000 cycles:   33889186 heartbeat IPC: 1.99254 cumulative IPC: 2.00654 (Simulation time: 0 hr 1 min 39 sec) 
Heartbeat CPU  0 instructions:   69000001 cycles:   34391303 heartbeat IPC: 1.99157 cumulative IPC: 2.00632 (Simulation time: 0 hr 1 min 41 sec) 
Heartbeat CPU  0 instructions:   70000000 cycles:   34888409 heartbeat IPC: 2.01164 cumulative IPC: 2.00640 (Simulation time: 0 hr 1 min 42 sec) 
Heartbeat CPU  0 instructions:   71000001 cycles:   35378792 heartbeat IPC: 2.03922 cumulative IPC: 2.00685 (Simulation time: 0 hr 1 min 44 sec) 
Heartbeat CPU  0 instructions:   72000000 cycles:   35881058 heartbeat IPC: 1.99097 cumulative IPC: 2.00663 (Simulation time: 0 hr 1 min 45 sec) 
Heartbeat CPU  0 instructions:   73000002 cycles:   36382380 heartbeat IPC: 1.99473 cumulative IPC: 2.00647 (Simulation time: 0 hr 1 min 47 sec) 
Heartbeat CPU  0 instructions:   74000003 cycles:   36884224 heartbeat IPC: 1.99265 cumulative IPC: 2.00628 (Simulation time: 0 hr 1 min 48 sec) 
Heartbeat CPU  0 instructions:   75000001 cycles:   37372701 heartbeat IPC: 2.04718 cumulative IPC: 2.00681 (Simulation time: 0 hr 1 min 49 sec) 
Heartbeat CPU  0 instructions:   76000000 cycles:   37872098 heartbeat IPC: 2.00241 cumulative IPC: 2.00675 (Simulation time: 0 hr 1 min 51 sec) 
Heartbeat CPU  0 instructions:   77000000 cycles:   38374012 heartbeat IPC: 1.99237 cumulative IPC: 2.00657 (Simulation time: 0 hr 1 min 52 sec) 
Heartbeat CPU  0 instructions:   78000003 cycles:   38875599 heartbeat IPC: 1.99368 cumulative IPC: 2.00640 (Simulation time: 0 hr 1 min 54 sec) 
Heartbeat CPU  0 instructions:   79000001 cycles:   39375922 heartbeat IPC: 1.99870 cumulative IPC: 2.00630 (Simulation time: 0 hr 1 min 55 sec) 
Heartbeat CPU  0 instructions:   80000000 cycles:   39864418 heartbeat IPC: 2.04710 cumulative IPC: 2.00680 (Simulation time: 0 hr 1 min 57 sec) 
Heartbeat CPU  0 instructions:   81000003 cycles:   40365373 heartbeat IPC: 1.99619 cumulative IPC: 2.00667 (Simulation time: 0 hr 1 min 58 sec) 
Heartbeat CPU  0 instructions:   82000003 cycles:   40866996 heartbeat IPC: 1.99353 cumulative IPC: 2.00651 (Simulation time: 0 hr 2 min 0 sec) 
Heartbeat CPU  0 instructions:   83000001 cycles:   41368927 heartbeat IPC: 1.99230 cumulative IPC: 2.00634 (Simulation time: 0 hr 2 min 1 sec) 
Heartbeat CPU  0 instructions:   84000000 cycles:   41860140 heartbeat IPC: 2.03577 cumulative IPC: 2.00668 (Simulation time: 0 hr 2 min 2 sec) 
Heartbeat CPU  0 instructions:   85000002 cycles:   42357620 heartbeat IPC: 2.01014 cumulative IPC: 2.00672 (Simulation time: 0 hr 2 min 4 sec) 
Heartbeat CPU  0 instructions:   86000002 cycles:   42859494 heartbeat IPC: 1.99253 cumulative IPC: 2.00656 (Simulation time: 0 hr 2 min 5 sec) 
Heartbeat CPU  0 instructions:   87000002 cycles:   43361198 heartbeat IPC: 1.99321 cumulative IPC: 2.00640 (Simulation time: 0 hr 2 min 7 sec) 
Heartbeat CPU  0 instructions:   88000000 cycles:   43863166 heartbeat IPC: 1.99215 cumulative IPC: 2.00624 (Simulation time: 0 hr 2 min 8 sec) 
Heartbeat CPU  0 instructions:   89000003 cycles:   44349850 heartbeat IPC: 2.05473 cumulative IPC: 2.00677 (Simulation time: 0 hr 2 min 10 sec) 
Heartbeat CPU  0 instructions:   90000002 cycles:   44851995 heartbeat IPC: 1.99145 cumulative IPC: 2.00660 (Simulation time: 0 hr 2 min 11 sec) 
Heartbeat CPU  0 instructions:   91000000 cycles:   45353418 heartbeat IPC: 1.99432 cumulative IPC: 2.00646 (Simulation time: 0 hr 2 min 13 sec) 
Heartbeat CPU  0 instructions:   92000000 cycles:   45855165 heartbeat IPC: 1.99304 cumulative IPC: 2.00632 (Simulation time: 0 hr 2 min 14 sec) 
Heartbeat CPU  0 instructions:   93000002 cycles:   46348142 heartbeat IPC: 2.02850 cumulative IPC: 2.00655 (Simulation time: 0 hr 2 min 16 sec) 
Heartbeat CPU  0 instructions:   94000003 cycles:   46843906 heartbeat IPC: 2.01709 cumulative IPC: 2.00666 (Simulation time: 0 hr 2 min 17 sec) 
Heartbeat CPU  0 instructions:   95000003 cycles:   47345493 heartbeat IPC: 1.99367 cumulative IPC: 2.00653 (Simulation time: 0 hr 2 min 19 sec) 
Heartbeat CPU  0 instructions:   96000000 cycles:   47847226 heartbeat IPC: 1.99309 cumulative IPC: 2.00639 (Simulation time: 0 hr 2 min 20 sec) 
Heartbeat CPU  0 instructions:   97000000 cycles:   48348639 heartbeat IPC: 1.99436 cumulative IPC: 2.00626 (Simulation time: 0 hr 2 min 22 sec) 
Heartbeat CPU  0 instructions:   98000000 cycles:   48835353 heartbeat IPC: 2.05459 cumulative IPC: 2.00674 (Simulation time: 0 hr 2 min 23 sec) 
Heartbeat CPU  0 instructions:   99000002 cycles:   49337190 heartbeat IPC: 1.99268 cumulative IPC: 2.00660 (Simulation time: 0 hr 2 min 24 sec) 
Heartbeat CPU  0 instructions:  100000000 cycles:   49838899 heartbeat IPC: 1.99318 cumulative IPC: 2.00646 (Simulation time: 0 hr 2 min 26 sec) 

Warmup complete CPU  0 instructions:  100000003 cycles:   49838900 (Simulation time: 0 hr 2 min 26 sec) 

Heartbeat CPU  0 instructions:  101000001 cycles:   50699438 heartbeat IPC: 1.16206 cumulative IPC: 1.16206 (Simulation time: 0 hr 2 min 28 sec) 
Heartbeat CPU  0 instructions:  102000002 cycles:   51570396 heartbeat IPC: 1.14816 cumulative IPC: 1.15507 (Simulation time: 0 hr 2 min 29 sec) 
Heartbeat CPU  0 instructions:  103000002 cycles:   52453636 heartbeat IPC: 1.13220 cumulative IPC: 1.14734 (Simulation time: 0 hr 2 min 31 sec) 
Heartbeat CPU  0 instructions:  104000000 cycles:   53339024 heartbeat IPC: 1.12945 cumulative IPC: 1.14282 (Simulation time: 0 hr 2 min 32 sec) 
Heartbeat CPU  0 instructions:  105000000 cycles:   54192826 heartbeat IPC: 1.17123 cumulative IPC: 1.14839 (Simulation time: 0 hr 2 min 34 sec) 
Heartbeat CPU  0 instructions:  106000001 cycles:   55051268 heartbeat IPC: 1.16490 cumulative IPC: 1.15111 (Simulation time: 0 hr 2 min 36 sec) 
Heartbeat CPU  0 instructions:  107000002 cycles:   55928086 heartbeat IPC: 1.14049 cumulative IPC: 1.14958 (Simulation time: 0 hr 2 min 37 sec) 
Heartbeat CPU  0 instructions:  108000000 cycles:   56803389 heartbeat IPC: 1.14246 cumulative IPC: 1.14868 (Simulation time: 0 hr 2 min 39 sec) 
Heartbeat CPU  0 instructions:  109000003 cycles:   57688652 heartbeat IPC: 1.12961 cumulative IPC: 1.14653 (Simulation time: 0 hr 2 min 41 sec) 
Heartbeat CPU  0 instructions:  110000001 cycles:   58553018 heartbeat IPC: 1.15692 cumulative IPC: 1.14756 (Simulation time: 0 hr 2 min 42 sec) 
Heartbeat CPU  0 instructions:  111000003 cycles:   59402393 heartbeat IPC: 1.17734 cumulative IPC: 1.15021 (Simulation time: 0 hr 2 min 44 sec) 
Heartbeat CPU  0 instructions:  112000000 cycles:   60280510 heartbeat IPC: 1.13880 cumulative IPC: 1.14925 (Simulation time: 0 hr 2 min 46 sec) 
Heartbeat CPU  0 instructions:  113000001 cycles:   61154252 heartbeat IPC: 1.14450 cumulative IPC: 1.14888 (Simulation time: 0 hr 2 min 47 sec) 
Heartbeat CPU  0 instructions:  114000002 cycles:   62035997 heartbeat IPC: 1.13412 cumulative IPC: 1.14781 (Simulation time: 0 hr 2 min 49 sec) 
Heartbeat CPU  0 instructions:  115000000 cycles:   62907026 heartbeat IPC: 1.14807 cumulative IPC: 1.14783 (Simulation time: 0 hr 2 min 51 sec) 
Heartbeat CPU  0 instructions:  116000000 cycles:   63763231 heartbeat IPC: 1.16794 cumulative IPC: 1.14907 (Simulation time: 0 hr 2 min 52 sec) 
Heartbeat CPU  0 instructions:  117000002 cycles:   64633836 heartbeat IPC: 1.14863 cumulative IPC: 1.14904 (Simulation time: 0 hr 2 min 54 sec) 
Heartbeat CPU  0 instructions:  118000002 cycles:   65505182 heartbeat IPC: 1.14765 cumulative IPC: 1.14896 (Simulation time: 0 hr 2 min 55 sec) 
Heartbeat CPU  0 instructions:  119000002 cycles:   66388848 heartbeat IPC: 1.13165 cumulative IPC: 1.14804 (Simulation time: 0 hr 2 min 57 sec) 
Heartbeat CPU  0 instructions:  120000000 cycles:   67267511 heartbeat IPC: 1.13809 cumulative IPC: 1.14754 (Simulation time: 0 hr 2 min 59 sec) 
Heartbeat CPU  0 instructions:  121000001 cycles:   68121792 heartbeat IPC: 1.17058 cumulative IPC: 1.14861 (Simulation time: 0 hr 3 min 0 sec) 
Heartbeat CPU  0 instructions:  122000002 cycles:   68988396 heartbeat IPC: 1.15393 cumulative IPC: 1.14886 (Simulation time: 0 hr 3 min 2 sec) 
Heartbeat CPU  0 instructions:  123000001 cycles:   69853215 heartbeat IPC: 1.15631 cumulative IPC: 1.14918 (Simulation time: 0 hr 3 min 4 sec) 
Heartbeat CPU  0 instructions:  124000000 cycles:   70740267 heartbeat IPC: 1.12733 cumulative IPC: 1.14825 (Simulation time: 0 hr 3 min 5 sec) 
Heartbeat CPU  0 instructions:  125000000 cycles:   71631286 heartbeat IPC: 1.12231 cumulative IPC: 1.14719 (Simulation time: 0 hr 3 min 7 sec) 
Heartbeat CPU  0 instructions:  126000000 cycles:   72474146 heartbeat IPC: 1.18644 cumulative IPC: 1.14865 (Simulation time: 0 hr 3 min 9 sec) 
Heartbeat CPU  0 instructions:  127000000 cycles:   73337077 heartbeat IPC: 1.15884 cumulative IPC: 1.14903 (Simulation time: 0 hr 3 min 10 sec) 
Heartbeat CPU  0 instructions:  128000000 cycles:   74200031 heartbeat IPC: 1.15881 cumulative IPC: 1.14937 (Simulation time: 0 hr 3 min 12 sec) 
Heartbeat CPU  0 instructions:  129000002 cycles:   75078467 heartbeat IPC: 1.13839 cumulative IPC: 1.14899 (Simulation time: 0 hr 3 min 14 sec) 
Heartbeat CPU  0 instructions:  130000002 cycles:   75975351 heartbeat IPC: 1.11497 cumulative IPC: 1.14782 (Simulation time: 0 hr 3 min 15 sec) 
Heartbeat CPU  0 instructions:  131000002 cycles:   76824504 heartbeat IPC: 1.17764 cumulative IPC: 1.14876 (Simulation time: 0 hr 3 min 17 sec) 
Heartbeat CPU  0 instructions:  132000000 cycles:   77681530 heartbeat IPC: 1.16682 cumulative IPC: 1.14932 (Simulation time: 0 hr 3 min 19 sec) 
Heartbeat CPU  0 instructions:  133000000 cycles:   78548637 heartbeat IPC: 1.15326 cumulative IPC: 1.14944 (Simulation time: 0 hr 3 min 20 sec) 
Heartbeat CPU  0 instructions:  134000000 cycles:   79424497 heartbeat IPC: 1.14173 cumulative IPC: 1.14921 (Simulation time: 0 hr 3 min 22 sec) 
Heartbeat CPU  0 instructions:  135000002 cycles:   80319488 heartbeat IPC: 1.11733 cumulative IPC: 1.14827 (Simulation time: 0 hr 3 min 24 sec) 
Heartbeat CPU  0 instructions:  136000000 cycles:   81174666 heartbeat IPC: 1.16934 cumulative IPC: 1.14885 (Simulation time: 0 hr 3 min 25 sec) 
Heartbeat CPU  0 instructions:  137000001 cycles:   82027594 heartbeat IPC: 1.17243 cumulative IPC: 1.14947 (Simulation time: 0 hr 3 min 27 sec) 
Heartbeat CPU  0 instructions:  138000003 cycles:   82898519 heartbeat IPC: 1.14821 cumulative IPC: 1.14944 (Simulation time: 0 hr 3 min 28 sec) 
Heartbeat CPU  0 instructions:  139000003 cycles:   83769777 heartbeat IPC: 1.14777 cumulative IPC: 1.14940 (Simulation time: 0 hr 3 min 30 sec) 
Heartbeat CPU  0 instructions:  140000000 cycles:   84663904 heartbeat IPC: 1.11841 cumulative IPC: 1.14860 (Simulation time: 0 hr 3 min 32 sec) 
Heartbeat CPU  0 instructions:  141000003 cycles:   85526571 heartbeat IPC: 1.15920 cumulative IPC: 1.14886 (Simulation time: 0 hr 3 min 33 sec) 
Heartbeat CPU  0 instructions:  142000000 cycles:   86373626 heartbeat IPC: 1.18056 cumulative IPC: 1.14959 (Simulation time: 0 hr 3 min 35 sec) 
Heartbeat CPU  0 instructions:  143000001 cycles:   87237815 heartbeat IPC: 1.15716 cumulative IPC: 1.14977 (Simulation time: 0 hr 3 min 37 sec) 
Heartbeat CPU  0 instructions:  144000000 cycles:   88113934 heartbeat IPC: 1.14140 cumulative IPC: 1.14957 (Simulation time: 0 hr 3 min 38 sec) 
Heartbeat CPU  0 instructions:  145000002 cycles:   89007430 heartbeat IPC: 1.11920 cumulative IPC: 1.14888 (Simulation time: 0 hr 3 min 40 sec) 
Heartbeat CPU  0 instructions:  146000002 cycles:   89881384 heartbeat IPC: 1.14423 cumulative IPC: 1.14878 (Simulation time: 0 hr 3 min 42 sec) 
Heartbeat CPU  0 instructions:  147000002 cycles:   90786897 heartbeat IPC: 1.10435 cumulative IPC: 1.14780 (Simulation time: 0 hr 3 min 43 sec) 
Heartbeat CPU  0 instructions:  148000000 cycles:   91974363 heartbeat IPC: 0.84213 cumulative IPC: 1.13918 (Simulation time: 0 hr 3 min 45 sec) 
Heartbeat CPU  0 instructions:  149000002 cycles:   93162517 heartbeat IPC: 0.84164 cumulative IPC: 1.13102 (Simulation time: 0 hr 3 min 47 sec) 
Heartbeat CPU  0 instructions:  150000002 cycles:   94368487 heartbeat IPC: 0.82921 cumulative IPC: 1.12285 (Simulation time: 0 hr 3 min 49 sec) 
Heartbeat CPU  0 instructions:  151000000 cycles:   95562492 heartbeat IPC: 0.83752 cumulative IPC: 1.11540 (Simulation time: 0 hr 3 min 50 sec) 
Heartbeat CPU  0 instructions:  152000000 cycles:   96759927 heartbeat IPC: 0.83512 cumulative IPC: 1.10825 (Simulation time: 0 hr 3 min 52 sec) 
Heartbeat CPU  0 instructions:  153000003 cycles:   97958164 heartbeat IPC: 0.83456 cumulative IPC: 1.10143 (Simulation time: 0 hr 3 min 54 sec) 
Heartbeat CPU  0 instructions:  154000002 cycles:   99164033 heartbeat IPC: 0.82928 cumulative IPC: 1.09478 (Simulation time: 0 hr 3 min 56 sec) 
Heartbeat CPU  0 instructions:  155000003 cycles:  100360698 heartbeat IPC: 0.83566 cumulative IPC: 1.08864 (Simulation time: 0 hr 3 min 57 sec) 
Heartbeat CPU  0 instructions:  156000000 cycles:  101557192 heartbeat IPC: 0.83577 cumulative IPC: 1.08279 (Simulation time: 0 hr 3 min 59 sec) 
Heartbeat CPU  0 instructions:  157000003 cycles:  102761683 heartbeat IPC: 0.83023 cumulative IPC: 1.07704 (Simulation time: 0 hr 4 min 1 sec) 
Heartbeat CPU  0 instructions:  158000003 cycles:  103958915 heartbeat IPC: 0.83526 cumulative IPC: 1.07169 (Simulation time: 0 hr 4 min 3 sec) 
Heartbeat CPU  0 instructions:  159000003 cycles:  105161479 heartbeat IPC: 0.83156 cumulative IPC: 1.06647 (Simulation time: 0 hr 4 min 5 sec) 
Heartbeat CPU  0 instructions:  160000000 cycles:  106375958 heartbeat IPC: 0.82340 cumulative IPC: 1.06125 (Simulation time: 0 hr 4 min 6 sec) 
Heartbeat CPU  0 instructions:  161000000 cycles:  107568798 heartbeat IPC: 0.83834 cumulative IPC: 1.05664 (Simulation time: 0 hr 4 min 8 sec) 
Heartbeat CPU  0 instructions:  162000000 cycles:  108776198 heartbeat IPC: 0.82823 cumulative IPC: 1.05197 (Simulation time: 0 hr 4 min 10 sec) 
Heartbeat CPU  0 instructions:  163000002 cycles:  109990974 heartbeat IPC: 0.82320 cumulative IPC: 1.04735 (Simulation time: 0 hr 4 min 12 sec) 
Heartbeat CPU  0 instructions:  164000000 cycles:  111181977 heartbeat IPC: 0.83963 cumulative IPC: 1.04331 (Simulation time: 0 hr 4 min 14 sec) 
Heartbeat CPU  0 instructions:  165000001 cycles:  112384924 heartbeat IPC: 0.83129 cumulative IPC: 1.03923 (Simulation time: 0 hr 4 min 15 sec) 
Heartbeat CPU  0 instructions:  166000001 cycles:  113585754 heartbeat IPC: 0.83276 cumulative IPC: 1.03535 (Simulation time: 0 hr 4 min 17 sec) 
Heartbeat CPU  0 instructions:  167000001 cycles:  114779992 heartbeat IPC: 0.83735 cumulative IPC: 1.03170 (Simulation time: 0 hr 4 min 19 sec) 
Heartbeat CPU  0 instructions:  168000000 cycles:  115984541 heartbeat IPC: 0.83019 cumulative IPC: 1.02803 (Simulation time: 0 hr 4 min 21 sec) 
Heartbeat CPU  0 instructions:  169000002 cycles:  117182163 heartbeat IPC: 0.83499 cumulative IPC: 1.02460 (Simulation time: 0 hr 4 min 23 sec) 
Heartbeat CPU  0 instructions:  170000002 cycles:  118378447 heartbeat IPC: 0.83592 cumulative IPC: 1.02131 (Simulation time: 0 hr 4 min 25 sec) 
Heartbeat CPU  0 instructions:  171000002 cycles:  119573842 heartbeat IPC: 0.83654 cumulative IPC: 1.01814 (Simulation time: 0 hr 4 min 26 sec) 
Heartbeat CPU  0 instructions:  172000000 cycles:  120770068 heartbeat IPC: 0.83596 cumulative IPC: 1.01507 (Simulation time: 0 hr 4 min 28 sec) 
Heartbeat CPU  0 instructions:  173000002 cycles:  121966352 heartbeat IPC: 0.83592 cumulative IPC: 1.01210 (Simulation time: 0 hr 4 min 30 sec) 
Heartbeat CPU  0 instructions:  174000002 cycles:  123168959 heartbeat IPC: 0.83153 cumulative IPC: 1.00914 (Simulation time: 0 hr 4 min 32 sec) 
Heartbeat CPU  0 instructions:  175000002 cycles:  124371200 heartbeat IPC: 0.83178 cumulative IPC: 1.00628 (Simulation time: 0 hr 4 min 33 sec) 
Heartbeat CPU  0 instructions:  176000000 cycles:  125569032 heartbeat IPC: 0.83484 cumulative IPC: 1.00356 (Simulation time: 0 hr 4 min 35 sec) 
Heartbeat CPU  0 instructions:  177000003 cycles:  126777146 heartbeat IPC: 0.82774 cumulative IPC: 1.00080 (Simulation time: 0 hr 4 min 37 sec) 
Heartbeat CPU  0 instructions:  178000000 cycles:  127979356 heartbeat IPC: 0.83180 cumulative IPC: 0.99820 (Simulation time: 0 hr 4 min 39 sec) 
Heartbeat CPU  0 instructions:  179000002 cycles:  129174138 heartbeat IPC: 0.83697 cumulative IPC: 0.99577 (Simulation time: 0 hr 4 min 41 sec) 
Heartbeat CPU  0 instructions:  180000000 cycles:  130375060 heartbeat IPC: 0.83269 cumulative IPC: 0.99334 (Simulation time: 0 hr 4 min 42 sec) 
Heartbeat CPU  0 instructions:  181000003 cycles:  131572223 heartbeat IPC: 0.83531 cumulative IPC: 0.99103 (Simulation time: 0 hr 4 min 44 sec) 
Heartbeat CPU  0 instructions:  182000002 cycles:  132765393 heartbeat IPC: 0.83810 cumulative IPC: 0.98883 (Simulation time: 0 hr 4 min 46 sec) 
Heartbeat CPU  0 instructions:  183000000 cycles:  133963932 heartbeat IPC: 0.83435 cumulative IPC: 0.98663 (Simulation time: 0 hr 4 min 48 sec) 
Heartbeat CPU  0 instructions:  184000000 cycles:  135160236 heartbeat IPC: 0.83591 cumulative IPC: 0.98451 (Simulation time: 0 hr 4 min 50 sec) 
Heartbeat CPU  0 instructions:  185000003 cycles:  136357053 heartbeat IPC: 0.83555 cumulative IPC: 0.98245 (Simulation time: 0 hr 4 min 51 sec) 
Heartbeat CPU  0 instructions:  186000001 cycles:  137556336 heartbeat IPC: 0.83383 cumulative IPC: 0.98042 (Simulation time: 0 hr 4 min 53 sec) 
Heartbeat CPU  0 instructions:  187000002 cycles:  138756082 heartbeat IPC: 0.83351 cumulative IPC: 0.97844 (Simulation time: 0 hr 4 min 55 sec) 
Heartbeat CPU  0 instructions:  188000000 cycles:  139950801 heartbeat IPC: 0.83702 cumulative IPC: 0.97656 (Simulation time: 0 hr 4 min 57 sec) 
Heartbeat CPU  0 instructions:  189000001 cycles:  141156218 heartbeat IPC: 0.82959 cumulative IPC: 0.97462 (Simulation time: 0 hr 4 min 59 sec) 
Heartbeat CPU  0 instructions:  190000003 cycles:  142354647 heartbeat IPC: 0.83443 cumulative IPC: 0.97281 (Simulation time: 0 hr 5 min 0 sec) 
Heartbeat CPU  0 instructions:  191000002 cycles:  143551434 heartbeat IPC: 0.83557 cumulative IPC: 0.97105 (Simulation time: 0 hr 5 min 2 sec) 
Heartbeat CPU  0 instructions:  192000000 cycles:  144756695 heartbeat IPC: 0.82969 cumulative IPC: 0.96926 (Simulation time: 0 hr 5 min 4 sec) 
Heartbeat CPU  0 instructions:  193000003 cycles:  145939281 heartbeat IPC: 0.84561 cumulative IPC: 0.96774 (Simulation time: 0 hr 5 min 6 sec) 
Heartbeat CPU  0 instructions:  194000001 cycles:  149982147 heartbeat IPC: 0.24735 cumulative IPC: 0.93866 (Simulation time: 0 hr 5 min 9 sec) 
Heartbeat CPU  0 instructions:  195000000 cycles:  153325365 heartbeat IPC: 0.29911 cumulative IPC: 0.91799 (Simulation time: 0 hr 5 min 12 sec) 
Heartbeat CPU  0 instructions:  196000000 cycles:  154078907 heartbeat IPC: 1.32707 cumulative IPC: 0.92095 (Simulation time: 0 hr 5 min 13 sec) 
Heartbeat CPU  0 instructions:  197000000 cycles:  154832413 heartbeat IPC: 1.32713 cumulative IPC: 0.92387 (Simulation time: 0 hr 5 min 15 sec) 
Heartbeat CPU  0 instructions:  198000003 cycles:  155586365 heartbeat IPC: 1.32635 cumulative IPC: 0.92674 (Simulation time: 0 hr 5 min 17 sec) 
Heartbeat CPU  0 instructions:  199000002 cycles:  156347089 heartbeat IPC: 1.31454 cumulative IPC: 0.92951 (Simulation time: 0 hr 5 min 19 sec) 
Heartbeat CPU  0 instructions:  200000000 cycles:  157101170 heartbeat IPC: 1.32611 cumulative IPC: 0.93229 (Simulation time: 0 hr 5 min 20 sec) 
Finished CPU 0 instructions: 100000000 cycles: 107262299 cumulative IPC: 0.93229 (Simulation time: 0 hr 5 min 20 sec) 

ChampSim completed all CPUs

[ROI Statistics]
Core_0_instructions 100000000
Core_0_cycles 107262299
Core_0_IPC 0.93229

Core_0_branch_prediction_accuracy 99.15344
Core_0_branch_MPKI 0.35029
Core_0_average_ROB_occupancy_at_mispredict 249.75823

Core_0_L1D_total_access 27533789
Core_0_L1D_total_hit 26091994
Core_0_L1D_total_miss 1441795
Core_0_L1D_loads 23065250
Core_0_L1D_load_hit 21960448
Core_0_L1D_load_miss 1104802
Core_0_L1D_RFOs 4468539
Core_0_L1D_RFO_hit 4131546
Core_0_L1D_RFO_miss 336993
Core_0_L1D_prefetches 0
Core_0_L1D_prefetch_hit 0
Core_0_L1D_prefetch_miss 0
Core_0_L1D_writebacks 0
Core_0_L1D_writeback_hit 0
Core_0_L1D_writeback_miss 0
Core_0_L1D_prefetch_requested 0
Core_0_L1D_prefetch_issued 0
Core_0_L1D_prefetch_useful 0
Core_0_L1D_prefetch_useless 0
Core_0_L1D_prefetch_late 0
Core_0_L1D_average_miss_latency 75.34407

Core_0_L1I_total_access 22681682
Core_0_L1I_total_hit 22681462
Core_0_L1I_total_miss 220
Core_0_L1I_loads 22681682
Core_0_L1I_load_hit 22681462
Core_0_L1I_load_miss 220
Core_0_L1I_RFOs 0
Core_0_L1I_RFO_hit 0
Core_0_L1I_RFO_miss 0
Core_0_L1I_prefetches 0
Core_0_L1I_prefetch_hit 0
Core_0_L1I_prefetch_miss 0
Core_0_L1I_writebacks 0
Core_0_L1I_writeback_hit 0
Core_0_L1I_writeback_miss 0
Core_0_L1I_prefetch_requested 0
Core_0_L1I_prefetch_issued 0
Core_0_L1I_prefetch_useful 0
Core_0_L1I_prefetch_useless 0
Core_0_L1I_prefetch_late 0
Core_0_L1I_average_miss_latency 245.95000

Core_0_L2C_total_access 4019952
Core_0_L2C_total_hit 2969951
Core_0_L2C_total_miss 1050001
Core_0_L2C_loads 1105017
Core_0_L2C_load_hit 898250
Core_0_L2C_load_miss 206767
Core_0_L2C_RFOs 336939
Core_0_L2C_RFO_hit 119452
Core_0_L2C_RFO_miss 217487
Core_0_L2C_prefetches 2024865
Core_0_L2C_prefetch_hit 1399256
Core_0_L2C_prefetch_miss 625609
Core_0_L2C_writebacks 553131
Core_0_L2C_writeback_hit 552993
Core_0_L2C_writeback_miss 138
Core_0_L2C_prefetch_requested 5127254
Core_0_L2C_prefetch_issued 5117956
Core_0_L2C_prefetch_useful 1021117
Core_0_L2C_prefetch_useless 86298
Core_0_L2C_prefetch_late 85521
Core_0_L2C_average_miss_latency 222.63980

Core_0_LLC_total_access 1461599
Core_0_LLC_total_hit 533202
Core_0_LLC_total_miss 928397
Core_0_LLC_loads 121246
Core_0_LLC_load_hit 45169
Core_0_LLC_load_miss 76077
Core_0_LLC_RFOs 217487
Core_0_LLC_RFO_hit 11458
Core_0_LLC_RFO_miss 206029
Core_0_LLC_prefetches 714139
Core_0_LLC_prefetch_hit 69152
Core_0_LLC_prefetch_miss 644987
Core_0_LLC_writebacks 408727
Core_0_LLC_writeback_hit 407423
Core_0_LLC_writeback_miss 1304
Core_0_LLC_prefetch_requested 0
Core_0_LLC_prefetch_issued 0
Core_0_LLC_prefetch_useful 91838
Core_0_LLC_prefetch_useless 878670
Core_0_LLC_prefetch_late 0
Core_0_LLC_average_miss_latency 241.95676

Core_0_major_page_fault 0
Core_0_minor_page_fault 15627

CPU 0 L2C PC-based stride prefetcher final stats
Channel_0_RQ_row_buffer_hit 302453
Channel_0_RQ_row_buffer_miss 624626
Channel_0_WQ_row_buffer_hit 104112
Channel_0_WQ_row_buffer_miss 280274
Channel_0_WQ_full 0
Channel_0_dbus_congested 404230

avg_congested_cycle 10
