*************************************************
   ChampSim Multicore Out-of-Order Simulator
   Last compiled: Dec 23 2023 13:45:40
*************************************************

trace_0 ./test_trace/437.leslie3d-134B.champsimtrace.xz
CPU 0 L2C IP-based stride prefetcher
Initialize SRRIP state
LLC Next Line Prefetcher
warmup_instructions 100000000
simulation_instructions 100000000
champsim_seed 218

num_cpus 1
cpu_freq 4000
dram_io_freq 2400
page_size 4096
block_size 64
max_read_per_cycle 8
max_fill_per_cycle 1
dram_channels 1
dram_ranks 1
dram_banks 8
dram_rows 65536
dram_columns 128
dram_row_size 8
dram_size 4096
dram_pages 1048576

fetch_width 6
decode_width 6
exec_width 4
lq_width 2
sq_width 2
retire_width 4
scheduler_size 128
branch_mispredict_penalty 20
rob_size 256
lq_size 72
sq_size 56
num_instr_destinations_sparc 4
num_instr_destinations 2
num_instr_sources 4

itlb_set 16
itlb_way 8
itlb_rq_size 16
itlb_wq_size 16
itlb_pq_size 0
itlb_mshr_size 8
itlb_latency 1

dtlb_set 16
dtlb_way 4
dtlb_rq_size 16
dtlb_wq_size 16
dtlb_pq_size 0
dtlb_mshr_size 8
dtlb_latency 1

stlb_set 128
stlb_way 12
stlb_rq_size 32
stlb_wq_size 32
stlb_pq_size 0
stlb_mshr_size 16
stlb_latency 8

l1i_size 32
l1i_set 64
l1i_way 8
l1i_rq_size 64
l1i_wq_size 64
l1i_pq_size 8
l1i_mshr_size 8
l1i_latency 1

l1d_size 32
l1d_set 64
l1d_way 8
l1d_rq_size 64
l1d_wq_size 64
l1d_pq_size 8
l1d_mshr_size 16
l1d_latency 4

l2c_size 512
l2c_set 1024
l2c_way 8
l2c_rq_size 32
l2c_wq_size 32
l2c_pq_size 16
l2c_mshr_size 32
l2c_latency 10

llc_size 2048
llc_set 2048
llc_way 16
llc_rq_size 32
llc_wq_size 32
llc_pq_size 32
llc_mshr_size 64
llc_latency 20

dram_channel_width 8
dram_wq_size 64
dram_rq_size 64
tRP 15
tRCD 15
tCAS 12.5
dram_dbus_turn_around_time 30
dram_write_high_wm 56
dram_write_low_wm 48
min_dram_writes_per_switch 16
dram_mtps 2400
dram_dbus_return_time 13


Heartbeat CPU  0 instructions:    1000002 cycles:     502248 heartbeat IPC: 1.99105 cumulative IPC: 1.99105 (Simulation time: 0 hr 0 min 2 sec) 
Heartbeat CPU  0 instructions:    2000001 cycles:     993702 heartbeat IPC: 2.03478 cumulative IPC: 2.01268 (Simulation time: 0 hr 0 min 3 sec) 
Heartbeat CPU  0 instructions:    3000001 cycles:    1490369 heartbeat IPC: 2.01342 cumulative IPC: 2.01292 (Simulation time: 0 hr 0 min 4 sec) 
Heartbeat CPU  0 instructions:    4000000 cycles:    1992110 heartbeat IPC: 1.99306 cumulative IPC: 2.00792 (Simulation time: 0 hr 0 min 6 sec) 
Heartbeat CPU  0 instructions:    5000000 cycles:    2494100 heartbeat IPC: 1.99207 cumulative IPC: 2.00473 (Simulation time: 0 hr 0 min 7 sec) 
Heartbeat CPU  0 instructions:    6000001 cycles:    2995909 heartbeat IPC: 1.99279 cumulative IPC: 2.00273 (Simulation time: 0 hr 0 min 8 sec) 
Heartbeat CPU  0 instructions:    7000000 cycles:    3482638 heartbeat IPC: 2.05453 cumulative IPC: 2.00997 (Simulation time: 0 hr 0 min 10 sec) 
Heartbeat CPU  0 instructions:    8000000 cycles:    3984330 heartbeat IPC: 1.99325 cumulative IPC: 2.00787 (Simulation time: 0 hr 0 min 11 sec) 
Heartbeat CPU  0 instructions:    9000001 cycles:    4485463 heartbeat IPC: 1.99548 cumulative IPC: 2.00648 (Simulation time: 0 hr 0 min 13 sec) 
Heartbeat CPU  0 instructions:   10000000 cycles:    4987401 heartbeat IPC: 1.99228 cumulative IPC: 2.00505 (Simulation time: 0 hr 0 min 14 sec) 
Heartbeat CPU  0 instructions:   11000001 cycles:    5481246 heartbeat IPC: 2.02493 cumulative IPC: 2.00684 (Simulation time: 0 hr 0 min 15 sec) 
Heartbeat CPU  0 instructions:   12000000 cycles:    5976051 heartbeat IPC: 2.02100 cumulative IPC: 2.00801 (Simulation time: 0 hr 0 min 17 sec) 
Heartbeat CPU  0 instructions:   13000003 cycles:    6477575 heartbeat IPC: 1.99393 cumulative IPC: 2.00692 (Simulation time: 0 hr 0 min 18 sec) 
Heartbeat CPU  0 instructions:   14000001 cycles:    6979089 heartbeat IPC: 1.99396 cumulative IPC: 2.00599 (Simulation time: 0 hr 0 min 19 sec) 
Heartbeat CPU  0 instructions:   15000003 cycles:    7480800 heartbeat IPC: 1.99318 cumulative IPC: 2.00513 (Simulation time: 0 hr 0 min 21 sec) 
Heartbeat CPU  0 instructions:   16000000 cycles:    7967844 heartbeat IPC: 2.05320 cumulative IPC: 2.00807 (Simulation time: 0 hr 0 min 22 sec) 
Heartbeat CPU  0 instructions:   17000001 cycles:    8469505 heartbeat IPC: 1.99338 cumulative IPC: 2.00720 (Simulation time: 0 hr 0 min 23 sec) 
Heartbeat CPU  0 instructions:   18000001 cycles:    8970853 heartbeat IPC: 1.99462 cumulative IPC: 2.00650 (Simulation time: 0 hr 0 min 25 sec) 
Heartbeat CPU  0 instructions:   19000003 cycles:    9471927 heartbeat IPC: 1.99572 cumulative IPC: 2.00593 (Simulation time: 0 hr 0 min 26 sec) 
Heartbeat CPU  0 instructions:   20000000 cycles:    9968668 heartbeat IPC: 2.01312 cumulative IPC: 2.00629 (Simulation time: 0 hr 0 min 27 sec) 
Heartbeat CPU  0 instructions:   21000001 cycles:   10460659 heartbeat IPC: 2.03256 cumulative IPC: 2.00752 (Simulation time: 0 hr 0 min 29 sec) 
Heartbeat CPU  0 instructions:   22000003 cycles:   10962633 heartbeat IPC: 1.99214 cumulative IPC: 2.00682 (Simulation time: 0 hr 0 min 30 sec) 
Heartbeat CPU  0 instructions:   23000001 cycles:   11464798 heartbeat IPC: 1.99137 cumulative IPC: 2.00614 (Simulation time: 0 hr 0 min 31 sec) 
Heartbeat CPU  0 instructions:   24000000 cycles:   11966155 heartbeat IPC: 1.99458 cumulative IPC: 2.00566 (Simulation time: 0 hr 0 min 33 sec) 
Heartbeat CPU  0 instructions:   25000003 cycles:   12452776 heartbeat IPC: 2.05499 cumulative IPC: 2.00758 (Simulation time: 0 hr 0 min 34 sec) 
Heartbeat CPU  0 instructions:   26000001 cycles:   12954689 heartbeat IPC: 1.99237 cumulative IPC: 2.00700 (Simulation time: 0 hr 0 min 36 sec) 
Heartbeat CPU  0 instructions:   27000003 cycles:   13456787 heartbeat IPC: 1.99165 cumulative IPC: 2.00642 (Simulation time: 0 hr 0 min 37 sec) 
Heartbeat CPU  0 instructions:   28000000 cycles:   13958640 heartbeat IPC: 1.99261 cumulative IPC: 2.00593 (Simulation time: 0 hr 0 min 38 sec) 
Heartbeat CPU  0 instructions:   29000002 cycles:   14456027 heartbeat IPC: 2.01051 cumulative IPC: 2.00608 (Simulation time: 0 hr 0 min 40 sec) 
Heartbeat CPU  0 instructions:   30000000 cycles:   14946562 heartbeat IPC: 2.03859 cumulative IPC: 2.00715 (Simulation time: 0 hr 0 min 41 sec) 
Heartbeat CPU  0 instructions:   31000002 cycles:   15448356 heartbeat IPC: 1.99285 cumulative IPC: 2.00669 (Simulation time: 0 hr 0 min 42 sec) 
Heartbeat CPU  0 instructions:   32000000 cycles:   15949800 heartbeat IPC: 1.99424 cumulative IPC: 2.00629 (Simulation time: 0 hr 0 min 44 sec) 
Heartbeat CPU  0 instructions:   33000001 cycles:   16451751 heartbeat IPC: 1.99223 cumulative IPC: 2.00587 (Simulation time: 0 hr 0 min 45 sec) 
Heartbeat CPU  0 instructions:   34000003 cycles:   16940163 heartbeat IPC: 2.04746 cumulative IPC: 2.00706 (Simulation time: 0 hr 0 min 46 sec) 
Heartbeat CPU  0 instructions:   35000000 cycles:   17439613 heartbeat IPC: 2.00220 cumulative IPC: 2.00693 (Simulation time: 0 hr 0 min 48 sec) 
Heartbeat CPU  0 instructions:   36000000 cycles:   17941052 heartbeat IPC: 1.99426 cumulative IPC: 2.00657 (Simulation time: 0 hr 0 min 49 sec) 
Heartbeat CPU  0 instructions:   37000003 cycles:   18442828 heartbeat IPC: 1.99293 cumulative IPC: 2.00620 (Simulation time: 0 hr 0 min 50 sec) 
Heartbeat CPU  0 instructions:   38000003 cycles:   18943518 heartbeat IPC: 1.99724 cumulative IPC: 2.00596 (Simulation time: 0 hr 0 min 52 sec) 
Heartbeat CPU  0 instructions:   39000003 cycles:   19430693 heartbeat IPC: 2.05265 cumulative IPC: 2.00713 (Simulation time: 0 hr 0 min 53 sec) 
Heartbeat CPU  0 instructions:   40000000 cycles:   19931886 heartbeat IPC: 1.99523 cumulative IPC: 2.00683 (Simulation time: 0 hr 0 min 54 sec) 
Heartbeat CPU  0 instructions:   41000001 cycles:   20433907 heartbeat IPC: 1.99195 cumulative IPC: 2.00647 (Simulation time: 0 hr 0 min 56 sec) 
Heartbeat CPU  0 instructions:   42000002 cycles:   20935900 heartbeat IPC: 1.99206 cumulative IPC: 2.00612 (Simulation time: 0 hr 0 min 57 sec) 
Heartbeat CPU  0 instructions:   43000003 cycles:   21427346 heartbeat IPC: 2.03481 cumulative IPC: 2.00678 (Simulation time: 0 hr 0 min 58 sec) 
Heartbeat CPU  0 instructions:   44000000 cycles:   21924133 heartbeat IPC: 2.01293 cumulative IPC: 2.00692 (Simulation time: 0 hr 1 min 0 sec) 
Heartbeat CPU  0 instructions:   45000001 cycles:   22426019 heartbeat IPC: 1.99249 cumulative IPC: 2.00660 (Simulation time: 0 hr 1 min 1 sec) 
Heartbeat CPU  0 instructions:   46000000 cycles:   22927617 heartbeat IPC: 1.99363 cumulative IPC: 2.00631 (Simulation time: 0 hr 1 min 3 sec) 
Heartbeat CPU  0 instructions:   47000002 cycles:   23429524 heartbeat IPC: 1.99240 cumulative IPC: 2.00602 (Simulation time: 0 hr 1 min 4 sec) 
Heartbeat CPU  0 instructions:   48000000 cycles:   23916069 heartbeat IPC: 2.05530 cumulative IPC: 2.00702 (Simulation time: 0 hr 1 min 5 sec) 
Heartbeat CPU  0 instructions:   49000002 cycles:   24417836 heartbeat IPC: 1.99296 cumulative IPC: 2.00673 (Simulation time: 0 hr 1 min 7 sec) 
Heartbeat CPU  0 instructions:   50000003 cycles:   24919092 heartbeat IPC: 1.99499 cumulative IPC: 2.00649 (Simulation time: 0 hr 1 min 8 sec) 
Heartbeat CPU  0 instructions:   51000003 cycles:   25420604 heartbeat IPC: 1.99397 cumulative IPC: 2.00625 (Simulation time: 0 hr 1 min 9 sec) 
Heartbeat CPU  0 instructions:   52000000 cycles:   25914113 heartbeat IPC: 2.02630 cumulative IPC: 2.00663 (Simulation time: 0 hr 1 min 11 sec) 
Heartbeat CPU  0 instructions:   53000001 cycles:   26409103 heartbeat IPC: 2.02024 cumulative IPC: 2.00688 (Simulation time: 0 hr 1 min 12 sec) 
Heartbeat CPU  0 instructions:   54000003 cycles:   26910692 heartbeat IPC: 1.99367 cumulative IPC: 2.00664 (Simulation time: 0 hr 1 min 13 sec) 
Heartbeat CPU  0 instructions:   55000000 cycles:   27412173 heartbeat IPC: 1.99409 cumulative IPC: 2.00641 (Simulation time: 0 hr 1 min 15 sec) 
Heartbeat CPU  0 instructions:   56000000 cycles:   27913590 heartbeat IPC: 1.99435 cumulative IPC: 2.00619 (Simulation time: 0 hr 1 min 16 sec) 
Heartbeat CPU  0 instructions:   57000002 cycles:   28400580 heartbeat IPC: 2.05343 cumulative IPC: 2.00700 (Simulation time: 0 hr 1 min 18 sec) 
Heartbeat CPU  0 instructions:   58000003 cycles:   28902203 heartbeat IPC: 1.99353 cumulative IPC: 2.00677 (Simulation time: 0 hr 1 min 19 sec) 
Heartbeat CPU  0 instructions:   59000001 cycles:   29403880 heartbeat IPC: 1.99331 cumulative IPC: 2.00654 (Simulation time: 0 hr 1 min 20 sec) 
Heartbeat CPU  0 instructions:   60000000 cycles:   29904891 heartbeat IPC: 1.99596 cumulative IPC: 2.00636 (Simulation time: 0 hr 1 min 22 sec) 
Heartbeat CPU  0 instructions:   61000000 cycles:   30400806 heartbeat IPC: 2.01647 cumulative IPC: 2.00653 (Simulation time: 0 hr 1 min 23 sec) 
Heartbeat CPU  0 instructions:   62000001 cycles:   30893216 heartbeat IPC: 2.03083 cumulative IPC: 2.00691 (Simulation time: 0 hr 1 min 24 sec) 
Heartbeat CPU  0 instructions:   63000001 cycles:   31395075 heartbeat IPC: 1.99259 cumulative IPC: 2.00668 (Simulation time: 0 hr 1 min 26 sec) 
Heartbeat CPU  0 instructions:   64000000 cycles:   31897257 heartbeat IPC: 1.99131 cumulative IPC: 2.00644 (Simulation time: 0 hr 1 min 27 sec) 
Heartbeat CPU  0 instructions:   65000000 cycles:   32398734 heartbeat IPC: 1.99411 cumulative IPC: 2.00625 (Simulation time: 0 hr 1 min 28 sec) 
Heartbeat CPU  0 instructions:   66000003 cycles:   32884966 heartbeat IPC: 2.05664 cumulative IPC: 2.00700 (Simulation time: 0 hr 1 min 30 sec) 
Heartbeat CPU  0 instructions:   67000000 cycles:   33387018 heartbeat IPC: 1.99182 cumulative IPC: 2.00677 (Simulation time: 0 hr 1 min 31 sec) 
Heartbeat CPU  0 instructions:   68000000 cycles:   33888904 heartbeat IPC: 1.99248 cumulative IPC: 2.00656 (Simulation time: 0 hr 1 min 32 sec) 
Heartbeat CPU  0 instructions:   69000001 cycles:   34391033 heartbeat IPC: 1.99152 cumulative IPC: 2.00634 (Simulation time: 0 hr 1 min 34 sec) 
Heartbeat CPU  0 instructions:   70000000 cycles:   34888122 heartbeat IPC: 2.01171 cumulative IPC: 2.00641 (Simulation time: 0 hr 1 min 35 sec) 
Heartbeat CPU  0 instructions:   71000001 cycles:   35378510 heartbeat IPC: 2.03920 cumulative IPC: 2.00687 (Simulation time: 0 hr 1 min 37 sec) 
Heartbeat CPU  0 instructions:   72000000 cycles:   35880749 heartbeat IPC: 1.99108 cumulative IPC: 2.00665 (Simulation time: 0 hr 1 min 38 sec) 
Heartbeat CPU  0 instructions:   73000002 cycles:   36382063 heartbeat IPC: 1.99476 cumulative IPC: 2.00648 (Simulation time: 0 hr 1 min 39 sec) 
Heartbeat CPU  0 instructions:   74000003 cycles:   36883907 heartbeat IPC: 1.99265 cumulative IPC: 2.00630 (Simulation time: 0 hr 1 min 41 sec) 
Heartbeat CPU  0 instructions:   75000001 cycles:   37372386 heartbeat IPC: 2.04717 cumulative IPC: 2.00683 (Simulation time: 0 hr 1 min 42 sec) 
Heartbeat CPU  0 instructions:   76000000 cycles:   37871794 heartbeat IPC: 2.00237 cumulative IPC: 2.00677 (Simulation time: 0 hr 1 min 43 sec) 
Heartbeat CPU  0 instructions:   77000000 cycles:   38373709 heartbeat IPC: 1.99237 cumulative IPC: 2.00658 (Simulation time: 0 hr 1 min 45 sec) 
Heartbeat CPU  0 instructions:   78000003 cycles:   38875286 heartbeat IPC: 1.99372 cumulative IPC: 2.00642 (Simulation time: 0 hr 1 min 46 sec) 
Heartbeat CPU  0 instructions:   79000001 cycles:   39375619 heartbeat IPC: 1.99866 cumulative IPC: 2.00632 (Simulation time: 0 hr 1 min 48 sec) 
Heartbeat CPU  0 instructions:   80000000 cycles:   39864112 heartbeat IPC: 2.04711 cumulative IPC: 2.00682 (Simulation time: 0 hr 1 min 49 sec) 
Heartbeat CPU  0 instructions:   81000003 cycles:   40365052 heartbeat IPC: 1.99625 cumulative IPC: 2.00669 (Simulation time: 0 hr 1 min 50 sec) 
Heartbeat CPU  0 instructions:   82000003 cycles:   40866665 heartbeat IPC: 1.99357 cumulative IPC: 2.00653 (Simulation time: 0 hr 1 min 52 sec) 
Heartbeat CPU  0 instructions:   83000001 cycles:   41368580 heartbeat IPC: 1.99237 cumulative IPC: 2.00635 (Simulation time: 0 hr 1 min 53 sec) 
Heartbeat CPU  0 instructions:   84000000 cycles:   41859790 heartbeat IPC: 2.03579 cumulative IPC: 2.00670 (Simulation time: 0 hr 1 min 54 sec) 
Heartbeat CPU  0 instructions:   85000002 cycles:   42357267 heartbeat IPC: 2.01015 cumulative IPC: 2.00674 (Simulation time: 0 hr 1 min 56 sec) 
Heartbeat CPU  0 instructions:   86000002 cycles:   42859134 heartbeat IPC: 1.99256 cumulative IPC: 2.00657 (Simulation time: 0 hr 1 min 57 sec) 
Heartbeat CPU  0 instructions:   87000002 cycles:   43360815 heartbeat IPC: 1.99330 cumulative IPC: 2.00642 (Simulation time: 0 hr 1 min 58 sec) 
Heartbeat CPU  0 instructions:   88000000 cycles:   43862773 heartbeat IPC: 1.99219 cumulative IPC: 2.00626 (Simulation time: 0 hr 2 min 0 sec) 
Heartbeat CPU  0 instructions:   89000003 cycles:   44349471 heartbeat IPC: 2.05467 cumulative IPC: 2.00679 (Simulation time: 0 hr 2 min 1 sec) 
Heartbeat CPU  0 instructions:   90000002 cycles:   44851611 heartbeat IPC: 1.99147 cumulative IPC: 2.00662 (Simulation time: 0 hr 2 min 2 sec) 
Heartbeat CPU  0 instructions:   91000000 cycles:   45353018 heartbeat IPC: 1.99438 cumulative IPC: 2.00648 (Simulation time: 0 hr 2 min 4 sec) 
Heartbeat CPU  0 instructions:   92000000 cycles:   45854757 heartbeat IPC: 1.99307 cumulative IPC: 2.00634 (Simulation time: 0 hr 2 min 5 sec) 
Heartbeat CPU  0 instructions:   93000002 cycles:   46347717 heartbeat IPC: 2.02857 cumulative IPC: 2.00657 (Simulation time: 0 hr 2 min 6 sec) 
Heartbeat CPU  0 instructions:   94000003 cycles:   46843478 heartbeat IPC: 2.01710 cumulative IPC: 2.00668 (Simulation time: 0 hr 2 min 8 sec) 
Heartbeat CPU  0 instructions:   95000003 cycles:   47345074 heartbeat IPC: 1.99364 cumulative IPC: 2.00654 (Simulation time: 0 hr 2 min 9 sec) 
Heartbeat CPU  0 instructions:   96000000 cycles:   47846794 heartbeat IPC: 1.99314 cumulative IPC: 2.00640 (Simulation time: 0 hr 2 min 11 sec) 
Heartbeat CPU  0 instructions:   97000000 cycles:   48348191 heartbeat IPC: 1.99443 cumulative IPC: 2.00628 (Simulation time: 0 hr 2 min 12 sec) 
Heartbeat CPU  0 instructions:   98000000 cycles:   48834904 heartbeat IPC: 2.05460 cumulative IPC: 2.00676 (Simulation time: 0 hr 2 min 13 sec) 
Heartbeat CPU  0 instructions:   99000002 cycles:   49336722 heartbeat IPC: 1.99276 cumulative IPC: 2.00662 (Simulation time: 0 hr 2 min 15 sec) 
Heartbeat CPU  0 instructions:  100000000 cycles:   49838421 heartbeat IPC: 1.99322 cumulative IPC: 2.00648 (Simulation time: 0 hr 2 min 16 sec) 

Warmup complete CPU  0 instructions:  100000003 cycles:   49838422 (Simulation time: 0 hr 2 min 16 sec) 

Heartbeat CPU  0 instructions:  101000001 cycles:   50686163 heartbeat IPC: 1.17961 cumulative IPC: 1.17960 (Simulation time: 0 hr 2 min 17 sec) 
Heartbeat CPU  0 instructions:  102000002 cycles:   51541149 heartbeat IPC: 1.16961 cumulative IPC: 1.17459 (Simulation time: 0 hr 2 min 19 sec) 
Heartbeat CPU  0 instructions:  103000002 cycles:   52407749 heartbeat IPC: 1.15393 cumulative IPC: 1.16762 (Simulation time: 0 hr 2 min 21 sec) 
Heartbeat CPU  0 instructions:  104000000 cycles:   53271862 heartbeat IPC: 1.15725 cumulative IPC: 1.16501 (Simulation time: 0 hr 2 min 22 sec) 
Heartbeat CPU  0 instructions:  105000000 cycles:   54113610 heartbeat IPC: 1.18800 cumulative IPC: 1.16954 (Simulation time: 0 hr 2 min 24 sec) 
Heartbeat CPU  0 instructions:  106000001 cycles:   54961382 heartbeat IPC: 1.17956 cumulative IPC: 1.17120 (Simulation time: 0 hr 2 min 25 sec) 
Heartbeat CPU  0 instructions:  107000002 cycles:   55824113 heartbeat IPC: 1.15911 cumulative IPC: 1.16946 (Simulation time: 0 hr 2 min 27 sec) 
Heartbeat CPU  0 instructions:  108000000 cycles:   56683586 heartbeat IPC: 1.16350 cumulative IPC: 1.16871 (Simulation time: 0 hr 2 min 28 sec) 
Heartbeat CPU  0 instructions:  109000003 cycles:   57548015 heartbeat IPC: 1.15684 cumulative IPC: 1.16738 (Simulation time: 0 hr 2 min 30 sec) 
Heartbeat CPU  0 instructions:  110000001 cycles:   58395925 heartbeat IPC: 1.17937 cumulative IPC: 1.16856 (Simulation time: 0 hr 2 min 31 sec) 
Heartbeat CPU  0 instructions:  111000003 cycles:   59239511 heartbeat IPC: 1.18542 cumulative IPC: 1.17008 (Simulation time: 0 hr 2 min 33 sec) 
Heartbeat CPU  0 instructions:  112000000 cycles:   60100918 heartbeat IPC: 1.16089 cumulative IPC: 1.16931 (Simulation time: 0 hr 2 min 34 sec) 
Heartbeat CPU  0 instructions:  113000001 cycles:   60957759 heartbeat IPC: 1.16708 cumulative IPC: 1.16913 (Simulation time: 0 hr 2 min 36 sec) 
Heartbeat CPU  0 instructions:  114000002 cycles:   61820571 heartbeat IPC: 1.15900 cumulative IPC: 1.16840 (Simulation time: 0 hr 2 min 37 sec) 
Heartbeat CPU  0 instructions:  115000000 cycles:   62674027 heartbeat IPC: 1.17170 cumulative IPC: 1.16862 (Simulation time: 0 hr 2 min 39 sec) 
Heartbeat CPU  0 instructions:  116000000 cycles:   63523516 heartbeat IPC: 1.17718 cumulative IPC: 1.16916 (Simulation time: 0 hr 2 min 41 sec) 
Heartbeat CPU  0 instructions:  117000002 cycles:   64376933 heartbeat IPC: 1.17176 cumulative IPC: 1.16931 (Simulation time: 0 hr 2 min 42 sec) 
Heartbeat CPU  0 instructions:  118000002 cycles:   65230792 heartbeat IPC: 1.17115 cumulative IPC: 1.16941 (Simulation time: 0 hr 2 min 44 sec) 
Heartbeat CPU  0 instructions:  119000002 cycles:   66093435 heartbeat IPC: 1.15923 cumulative IPC: 1.16887 (Simulation time: 0 hr 2 min 45 sec) 
Heartbeat CPU  0 instructions:  120000000 cycles:   66953255 heartbeat IPC: 1.16303 cumulative IPC: 1.16858 (Simulation time: 0 hr 2 min 47 sec) 
Heartbeat CPU  0 instructions:  121000001 cycles:   67801408 heartbeat IPC: 1.17903 cumulative IPC: 1.16907 (Simulation time: 0 hr 2 min 48 sec) 
Heartbeat CPU  0 instructions:  122000002 cycles:   68652837 heartbeat IPC: 1.17450 cumulative IPC: 1.16932 (Simulation time: 0 hr 2 min 50 sec) 
Heartbeat CPU  0 instructions:  123000001 cycles:   69504363 heartbeat IPC: 1.17436 cumulative IPC: 1.16953 (Simulation time: 0 hr 2 min 51 sec) 
Heartbeat CPU  0 instructions:  124000000 cycles:   70368483 heartbeat IPC: 1.15725 cumulative IPC: 1.16902 (Simulation time: 0 hr 2 min 53 sec) 
Heartbeat CPU  0 instructions:  125000000 cycles:   71238563 heartbeat IPC: 1.14932 cumulative IPC: 1.16822 (Simulation time: 0 hr 2 min 54 sec) 
Heartbeat CPU  0 instructions:  126000000 cycles:   72076688 heartbeat IPC: 1.19314 cumulative IPC: 1.16916 (Simulation time: 0 hr 2 min 56 sec) 
Heartbeat CPU  0 instructions:  127000000 cycles:   72925028 heartbeat IPC: 1.17877 cumulative IPC: 1.16951 (Simulation time: 0 hr 2 min 57 sec) 
Heartbeat CPU  0 instructions:  128000000 cycles:   73775418 heartbeat IPC: 1.17593 cumulative IPC: 1.16974 (Simulation time: 0 hr 2 min 59 sec) 
Heartbeat CPU  0 instructions:  129000002 cycles:   74634941 heartbeat IPC: 1.16344 cumulative IPC: 1.16952 (Simulation time: 0 hr 3 min 1 sec) 
Heartbeat CPU  0 instructions:  130000002 cycles:   75509411 heartbeat IPC: 1.14355 cumulative IPC: 1.16863 (Simulation time: 0 hr 3 min 2 sec) 
Heartbeat CPU  0 instructions:  131000002 cycles:   76351831 heartbeat IPC: 1.18706 cumulative IPC: 1.16922 (Simulation time: 0 hr 3 min 4 sec) 
Heartbeat CPU  0 instructions:  132000000 cycles:   77196873 heartbeat IPC: 1.18337 cumulative IPC: 1.16966 (Simulation time: 0 hr 3 min 5 sec) 
Heartbeat CPU  0 instructions:  133000000 cycles:   78047426 heartbeat IPC: 1.17571 cumulative IPC: 1.16984 (Simulation time: 0 hr 3 min 7 sec) 
Heartbeat CPU  0 instructions:  134000000 cycles:   78909687 heartbeat IPC: 1.15974 cumulative IPC: 1.16954 (Simulation time: 0 hr 3 min 8 sec) 
Heartbeat CPU  0 instructions:  135000002 cycles:   79781626 heartbeat IPC: 1.14687 cumulative IPC: 1.16888 (Simulation time: 0 hr 3 min 10 sec) 
Heartbeat CPU  0 instructions:  136000000 cycles:   80625918 heartbeat IPC: 1.18442 cumulative IPC: 1.16931 (Simulation time: 0 hr 3 min 11 sec) 
Heartbeat CPU  0 instructions:  137000001 cycles:   81468969 heartbeat IPC: 1.18617 cumulative IPC: 1.16976 (Simulation time: 0 hr 3 min 13 sec) 
Heartbeat CPU  0 instructions:  138000003 cycles:   82321894 heartbeat IPC: 1.17244 cumulative IPC: 1.16983 (Simulation time: 0 hr 3 min 14 sec) 
Heartbeat CPU  0 instructions:  139000003 cycles:   83182150 heartbeat IPC: 1.16244 cumulative IPC: 1.16964 (Simulation time: 0 hr 3 min 16 sec) 
Heartbeat CPU  0 instructions:  140000000 cycles:   84051860 heartbeat IPC: 1.14981 cumulative IPC: 1.16913 (Simulation time: 0 hr 3 min 17 sec) 
Heartbeat CPU  0 instructions:  141000003 cycles:   84901039 heartbeat IPC: 1.17761 cumulative IPC: 1.16934 (Simulation time: 0 hr 3 min 19 sec) 
Heartbeat CPU  0 instructions:  142000000 cycles:   85740645 heartbeat IPC: 1.19103 cumulative IPC: 1.16984 (Simulation time: 0 hr 3 min 20 sec) 
Heartbeat CPU  0 instructions:  143000001 cycles:   86591681 heartbeat IPC: 1.17504 cumulative IPC: 1.16996 (Simulation time: 0 hr 3 min 22 sec) 
Heartbeat CPU  0 instructions:  144000000 cycles:   87452385 heartbeat IPC: 1.16184 cumulative IPC: 1.16978 (Simulation time: 0 hr 3 min 23 sec) 
Heartbeat CPU  0 instructions:  145000002 cycles:   88318734 heartbeat IPC: 1.15427 cumulative IPC: 1.16943 (Simulation time: 0 hr 3 min 25 sec) 
Heartbeat CPU  0 instructions:  146000002 cycles:   89175299 heartbeat IPC: 1.16745 cumulative IPC: 1.16939 (Simulation time: 0 hr 3 min 27 sec) 
Heartbeat CPU  0 instructions:  147000002 cycles:   90066783 heartbeat IPC: 1.12173 cumulative IPC: 1.16833 (Simulation time: 0 hr 3 min 28 sec) 
Heartbeat CPU  0 instructions:  148000000 cycles:   91209366 heartbeat IPC: 0.87521 cumulative IPC: 1.16023 (Simulation time: 0 hr 3 min 30 sec) 
Heartbeat CPU  0 instructions:  149000002 cycles:   92359351 heartbeat IPC: 0.86958 cumulative IPC: 1.15237 (Simulation time: 0 hr 3 min 31 sec) 
Heartbeat CPU  0 instructions:  150000002 cycles:   93502082 heartbeat IPC: 0.87510 cumulative IPC: 1.14512 (Simulation time: 0 hr 3 min 33 sec) 
Heartbeat CPU  0 instructions:  151000000 cycles:   94648025 heartbeat IPC: 0.87264 cumulative IPC: 1.13815 (Simulation time: 0 hr 3 min 35 sec) 
Heartbeat CPU  0 instructions:  152000000 cycles:   95795697 heartbeat IPC: 0.87133 cumulative IPC: 1.13149 (Simulation time: 0 hr 3 min 36 sec) 
Heartbeat CPU  0 instructions:  153000003 cycles:   96945800 heartbeat IPC: 0.86949 cumulative IPC: 1.12509 (Simulation time: 0 hr 3 min 38 sec) 
Heartbeat CPU  0 instructions:  154000002 cycles:   98093852 heartbeat IPC: 0.87104 cumulative IPC: 1.11905 (Simulation time: 0 hr 3 min 40 sec) 
Heartbeat CPU  0 instructions:  155000003 cycles:   99245752 heartbeat IPC: 0.86813 cumulative IPC: 1.11320 (Simulation time: 0 hr 3 min 41 sec) 
Heartbeat CPU  0 instructions:  156000000 cycles:  100392157 heartbeat IPC: 0.87229 cumulative IPC: 1.10773 (Simulation time: 0 hr 3 min 43 sec) 
Heartbeat CPU  0 instructions:  157000003 cycles:  101546889 heartbeat IPC: 0.86600 cumulative IPC: 1.10233 (Simulation time: 0 hr 3 min 45 sec) 
Heartbeat CPU  0 instructions:  158000003 cycles:  102696489 heartbeat IPC: 0.86987 cumulative IPC: 1.09728 (Simulation time: 0 hr 3 min 46 sec) 
Heartbeat CPU  0 instructions:  159000003 cycles:  103851920 heartbeat IPC: 0.86548 cumulative IPC: 1.09232 (Simulation time: 0 hr 3 min 48 sec) 
Heartbeat CPU  0 instructions:  160000000 cycles:  105006238 heartbeat IPC: 0.86631 cumulative IPC: 1.08759 (Simulation time: 0 hr 3 min 50 sec) 
Heartbeat CPU  0 instructions:  161000000 cycles:  106149549 heartbeat IPC: 0.87465 cumulative IPC: 1.08327 (Simulation time: 0 hr 3 min 51 sec) 
Heartbeat CPU  0 instructions:  162000000 cycles:  107307399 heartbeat IPC: 0.86367 cumulative IPC: 1.07884 (Simulation time: 0 hr 3 min 53 sec) 
Heartbeat CPU  0 instructions:  163000002 cycles:  108458576 heartbeat IPC: 0.86868 cumulative IPC: 1.07472 (Simulation time: 0 hr 3 min 55 sec) 
Heartbeat CPU  0 instructions:  164000000 cycles:  109604961 heartbeat IPC: 0.87231 cumulative IPC: 1.07083 (Simulation time: 0 hr 3 min 56 sec) 
Heartbeat CPU  0 instructions:  165000001 cycles:  110756869 heartbeat IPC: 0.86813 cumulative IPC: 1.06700 (Simulation time: 0 hr 3 min 58 sec) 
Heartbeat CPU  0 instructions:  166000001 cycles:  111905276 heartbeat IPC: 0.87077 cumulative IPC: 1.06337 (Simulation time: 0 hr 3 min 59 sec) 
Heartbeat CPU  0 instructions:  167000001 cycles:  113053831 heartbeat IPC: 0.87066 cumulative IPC: 1.05987 (Simulation time: 0 hr 4 min 1 sec) 
Heartbeat CPU  0 instructions:  168000000 cycles:  114205959 heartbeat IPC: 0.86796 cumulative IPC: 1.05643 (Simulation time: 0 hr 4 min 3 sec) 
Heartbeat CPU  0 instructions:  169000002 cycles:  115355440 heartbeat IPC: 0.86996 cumulative IPC: 1.05316 (Simulation time: 0 hr 4 min 4 sec) 
Heartbeat CPU  0 instructions:  170000002 cycles:  116501420 heartbeat IPC: 0.87262 cumulative IPC: 1.05006 (Simulation time: 0 hr 4 min 6 sec) 
Heartbeat CPU  0 instructions:  171000002 cycles:  117652193 heartbeat IPC: 0.86898 cumulative IPC: 1.04698 (Simulation time: 0 hr 4 min 8 sec) 
Heartbeat CPU  0 instructions:  172000000 cycles:  118800286 heartbeat IPC: 0.87101 cumulative IPC: 1.04406 (Simulation time: 0 hr 4 min 9 sec) 
Heartbeat CPU  0 instructions:  173000002 cycles:  119945093 heartbeat IPC: 0.87351 cumulative IPC: 1.04127 (Simulation time: 0 hr 4 min 11 sec) 
Heartbeat CPU  0 instructions:  174000002 cycles:  121099465 heartbeat IPC: 0.86627 cumulative IPC: 1.03844 (Simulation time: 0 hr 4 min 13 sec) 
Heartbeat CPU  0 instructions:  175000002 cycles:  122256337 heartbeat IPC: 0.86440 cumulative IPC: 1.03566 (Simulation time: 0 hr 4 min 14 sec) 
Heartbeat CPU  0 instructions:  176000000 cycles:  123399810 heartbeat IPC: 0.87453 cumulative IPC: 1.03315 (Simulation time: 0 hr 4 min 16 sec) 
Heartbeat CPU  0 instructions:  177000003 cycles:  124556724 heartbeat IPC: 0.86437 cumulative IPC: 1.03054 (Simulation time: 0 hr 4 min 18 sec) 
Heartbeat CPU  0 instructions:  178000000 cycles:  125709943 heartbeat IPC: 0.86714 cumulative IPC: 1.02805 (Simulation time: 0 hr 4 min 19 sec) 
Heartbeat CPU  0 instructions:  179000002 cycles:  126856617 heartbeat IPC: 0.87209 cumulative IPC: 1.02573 (Simulation time: 0 hr 4 min 21 sec) 
Heartbeat CPU  0 instructions:  180000000 cycles:  128005559 heartbeat IPC: 0.87036 cumulative IPC: 1.02345 (Simulation time: 0 hr 4 min 23 sec) 
Heartbeat CPU  0 instructions:  181000003 cycles:  129157794 heartbeat IPC: 0.86788 cumulative IPC: 1.02119 (Simulation time: 0 hr 4 min 24 sec) 
Heartbeat CPU  0 instructions:  182000002 cycles:  130306717 heartbeat IPC: 0.87038 cumulative IPC: 1.01903 (Simulation time: 0 hr 4 min 26 sec) 
Heartbeat CPU  0 instructions:  183000000 cycles:  131458196 heartbeat IPC: 0.86845 cumulative IPC: 1.01691 (Simulation time: 0 hr 4 min 28 sec) 
Heartbeat CPU  0 instructions:  184000000 cycles:  132606140 heartbeat IPC: 0.87112 cumulative IPC: 1.01489 (Simulation time: 0 hr 4 min 30 sec) 
Heartbeat CPU  0 instructions:  185000003 cycles:  133758046 heartbeat IPC: 0.86813 cumulative IPC: 1.01287 (Simulation time: 0 hr 4 min 31 sec) 
Heartbeat CPU  0 instructions:  186000001 cycles:  134905314 heartbeat IPC: 0.87163 cumulative IPC: 1.01097 (Simulation time: 0 hr 4 min 33 sec) 
Heartbeat CPU  0 instructions:  187000002 cycles:  136064617 heartbeat IPC: 0.86259 cumulative IPC: 1.00897 (Simulation time: 0 hr 4 min 35 sec) 
Heartbeat CPU  0 instructions:  188000000 cycles:  137214553 heartbeat IPC: 0.86961 cumulative IPC: 1.00714 (Simulation time: 0 hr 4 min 36 sec) 
Heartbeat CPU  0 instructions:  189000001 cycles:  138365931 heartbeat IPC: 0.86853 cumulative IPC: 1.00534 (Simulation time: 0 hr 4 min 38 sec) 
Heartbeat CPU  0 instructions:  190000003 cycles:  139525481 heartbeat IPC: 0.86241 cumulative IPC: 1.00349 (Simulation time: 0 hr 4 min 40 sec) 
Heartbeat CPU  0 instructions:  191000002 cycles:  140676285 heartbeat IPC: 0.86896 cumulative IPC: 1.00178 (Simulation time: 0 hr 4 min 41 sec) 
Heartbeat CPU  0 instructions:  192000000 cycles:  141829961 heartbeat IPC: 0.86679 cumulative IPC: 1.00009 (Simulation time: 0 hr 4 min 43 sec) 
Heartbeat CPU  0 instructions:  193000003 cycles:  142970373 heartbeat IPC: 0.87688 cumulative IPC: 0.99858 (Simulation time: 0 hr 4 min 45 sec) 
Heartbeat CPU  0 instructions:  194000001 cycles:  146618818 heartbeat IPC: 0.27409 cumulative IPC: 0.97127 (Simulation time: 0 hr 4 min 48 sec) 
Heartbeat CPU  0 instructions:  195000000 cycles:  149762997 heartbeat IPC: 0.31805 cumulative IPC: 0.95072 (Simulation time: 0 hr 4 min 50 sec) 
Heartbeat CPU  0 instructions:  196000000 cycles:  150491425 heartbeat IPC: 1.37282 cumulative IPC: 0.95377 (Simulation time: 0 hr 4 min 52 sec) 
Heartbeat CPU  0 instructions:  197000000 cycles:  151220207 heartbeat IPC: 1.37215 cumulative IPC: 0.95678 (Simulation time: 0 hr 4 min 54 sec) 
Heartbeat CPU  0 instructions:  198000003 cycles:  151953538 heartbeat IPC: 1.36364 cumulative IPC: 0.95970 (Simulation time: 0 hr 4 min 55 sec) 
Heartbeat CPU  0 instructions:  199000002 cycles:  152685088 heartbeat IPC: 1.36696 cumulative IPC: 0.96260 (Simulation time: 0 hr 4 min 57 sec) 
Heartbeat CPU  0 instructions:  200000000 cycles:  153412170 heartbeat IPC: 1.37536 cumulative IPC: 0.96550 (Simulation time: 0 hr 4 min 58 sec) 
Finished CPU 0 instructions: 100000000 cycles: 103573777 cumulative IPC: 0.96550 (Simulation time: 0 hr 4 min 58 sec) 

ChampSim completed all CPUs

[ROI Statistics]
Core_0_instructions 100000000
Core_0_cycles 103573777
Core_0_IPC 0.96550

Core_0_branch_prediction_accuracy 99.15344
Core_0_branch_MPKI 0.35029
Core_0_average_ROB_occupancy_at_mispredict 249.76171

Core_0_L1D_total_access 27523736
Core_0_L1D_total_hit 26081935
Core_0_L1D_total_miss 1441801
Core_0_L1D_loads 23045652
Core_0_L1D_load_hit 21940843
Core_0_L1D_load_miss 1104809
Core_0_L1D_RFOs 4478084
Core_0_L1D_RFO_hit 4141092
Core_0_L1D_RFO_miss 336992
Core_0_L1D_prefetches 0
Core_0_L1D_prefetch_hit 0
Core_0_L1D_prefetch_miss 0
Core_0_L1D_writebacks 0
Core_0_L1D_writeback_hit 0
Core_0_L1D_writeback_miss 0
Core_0_L1D_prefetch_requested 0
Core_0_L1D_prefetch_issued 0
Core_0_L1D_prefetch_useful 0
Core_0_L1D_prefetch_useless 0
Core_0_L1D_prefetch_late 0
Core_0_L1D_average_miss_latency 65.45042

Core_0_L1I_total_access 22670330
Core_0_L1I_total_hit 22670110
Core_0_L1I_total_miss 220
Core_0_L1I_loads 22670330
Core_0_L1I_load_hit 22670110
Core_0_L1I_load_miss 220
Core_0_L1I_RFOs 0
Core_0_L1I_RFO_hit 0
Core_0_L1I_RFO_miss 0
Core_0_L1I_prefetches 0
Core_0_L1I_prefetch_hit 0
Core_0_L1I_prefetch_miss 0
Core_0_L1I_writebacks 0
Core_0_L1I_writeback_hit 0
Core_0_L1I_writeback_miss 0
Core_0_L1I_prefetch_requested 0
Core_0_L1I_prefetch_issued 0
Core_0_L1I_prefetch_useful 0
Core_0_L1I_prefetch_useless 0
Core_0_L1I_prefetch_late 0
Core_0_L1I_average_miss_latency 224.82727

Core_0_L2C_total_access 4111027
Core_0_L2C_total_hit 3061024
Core_0_L2C_total_miss 1050003
Core_0_L2C_loads 1105024
Core_0_L2C_load_hit 917560
Core_0_L2C_load_miss 187464
Core_0_L2C_RFOs 336939
Core_0_L2C_RFO_hit 119442
Core_0_L2C_RFO_miss 217497
Core_0_L2C_prefetches 2115934
Core_0_L2C_prefetch_hit 1471030
Core_0_L2C_prefetch_miss 644904
Core_0_L2C_writebacks 553130
Core_0_L2C_writeback_hit 552992
Core_0_L2C_writeback_miss 138
Core_0_L2C_prefetch_requested 5115305
Core_0_L2C_prefetch_issued 5106006
Core_0_L2C_prefetch_useful 1040420
Core_0_L2C_prefetch_useless 86288
Core_0_L2C_prefetch_late 64967
Core_0_L2C_average_miss_latency 143.48454

Core_0_LLC_total_access 1874459
Core_0_LLC_total_hit 889584
Core_0_LLC_total_miss 984875
Core_0_LLC_loads 122497
Core_0_LLC_load_hit 67638
Core_0_LLC_load_miss 54859
Core_0_LLC_RFOs 217491
Core_0_LLC_RFO_hit 30625
Core_0_LLC_RFO_miss 186866
Core_0_LLC_prefetches 1125732
Core_0_LLC_prefetch_hit 421322
Core_0_LLC_prefetch_miss 704410
Core_0_LLC_writebacks 408739
Core_0_LLC_writeback_hit 369999
Core_0_LLC_writeback_miss 38740
Core_0_LLC_prefetch_requested 1218331
Core_0_LLC_prefetch_issued 1199082
Core_0_LLC_prefetch_useful 140528
Core_0_LLC_prefetch_useless 908470
Core_0_LLC_prefetch_late 5308
Core_0_LLC_average_miss_latency 233.28115

Core_0_major_page_fault 0
Core_0_minor_page_fault 15627

CPU 0 L2C PC-based stride prefetcher final stats
LLC Next Line Prefetcher Final Stats: none
Channel_0_RQ_row_buffer_hit 317497
Channel_0_RQ_row_buffer_miss 628601
Channel_0_WQ_row_buffer_hit 52572
Channel_0_WQ_row_buffer_miss 327056
Channel_0_WQ_full 0
Channel_0_dbus_congested 362935

avg_congested_cycle 9
