*************************************************
   ChampSim Multicore Out-of-Order Simulator
   Last compiled: Dec 23 2023 16:57:07
*************************************************

trace_0 ./test_trace/437.leslie3d-134B.champsimtrace.xz
CPU 0 L1D next line prefetcher
Initialize SRRIP state
warmup_instructions 100000000
simulation_instructions 100000000
champsim_seed 218

num_cpus 1
cpu_freq 4000
dram_io_freq 2400
page_size 4096
block_size 64
max_read_per_cycle 8
max_fill_per_cycle 1
dram_channels 1
dram_ranks 1
dram_banks 8
dram_rows 65536
dram_columns 128
dram_row_size 8
dram_size 4096
dram_pages 1048576

fetch_width 6
decode_width 6
exec_width 4
lq_width 2
sq_width 2
retire_width 4
scheduler_size 128
branch_mispredict_penalty 20
rob_size 256
lq_size 72
sq_size 56
num_instr_destinations_sparc 4
num_instr_destinations 2
num_instr_sources 4

itlb_set 16
itlb_way 8
itlb_rq_size 16
itlb_wq_size 16
itlb_pq_size 0
itlb_mshr_size 8
itlb_latency 1

dtlb_set 16
dtlb_way 4
dtlb_rq_size 16
dtlb_wq_size 16
dtlb_pq_size 0
dtlb_mshr_size 8
dtlb_latency 1

stlb_set 128
stlb_way 12
stlb_rq_size 32
stlb_wq_size 32
stlb_pq_size 0
stlb_mshr_size 16
stlb_latency 8

l1i_size 32
l1i_set 64
l1i_way 8
l1i_rq_size 64
l1i_wq_size 64
l1i_pq_size 8
l1i_mshr_size 8
l1i_latency 1

l1d_size 32
l1d_set 64
l1d_way 8
l1d_rq_size 64
l1d_wq_size 64
l1d_pq_size 8
l1d_mshr_size 16
l1d_latency 4

l2c_size 512
l2c_set 1024
l2c_way 8
l2c_rq_size 32
l2c_wq_size 32
l2c_pq_size 16
l2c_mshr_size 32
l2c_latency 10

llc_size 2048
llc_set 2048
llc_way 16
llc_rq_size 32
llc_wq_size 32
llc_pq_size 32
llc_mshr_size 64
llc_latency 20

dram_channel_width 8
dram_wq_size 64
dram_rq_size 64
tRP 15
tRCD 15
tCAS 12.5
dram_dbus_turn_around_time 30
dram_write_high_wm 56
dram_write_low_wm 48
min_dram_writes_per_switch 16
dram_mtps 2400
dram_dbus_return_time 13


Heartbeat CPU  0 instructions:    1000002 cycles:     502365 heartbeat IPC: 1.99059 cumulative IPC: 1.99059 (Simulation time: 0 hr 0 min 1 sec) 
Heartbeat CPU  0 instructions:    2000001 cycles:     993939 heartbeat IPC: 2.03428 cumulative IPC: 2.01220 (Simulation time: 0 hr 0 min 2 sec) 
Heartbeat CPU  0 instructions:    3000001 cycles:    1490646 heartbeat IPC: 2.01326 cumulative IPC: 2.01255 (Simulation time: 0 hr 0 min 4 sec) 
Heartbeat CPU  0 instructions:    4000000 cycles:    1992242 heartbeat IPC: 1.99363 cumulative IPC: 2.00779 (Simulation time: 0 hr 0 min 5 sec) 
Heartbeat CPU  0 instructions:    5000000 cycles:    2494080 heartbeat IPC: 1.99267 cumulative IPC: 2.00475 (Simulation time: 0 hr 0 min 6 sec) 
Heartbeat CPU  0 instructions:    6000001 cycles:    2995828 heartbeat IPC: 1.99303 cumulative IPC: 2.00279 (Simulation time: 0 hr 0 min 8 sec) 
Heartbeat CPU  0 instructions:    7000000 cycles:    3482648 heartbeat IPC: 2.05415 cumulative IPC: 2.00996 (Simulation time: 0 hr 0 min 9 sec) 
Heartbeat CPU  0 instructions:    8000000 cycles:    3984370 heartbeat IPC: 1.99314 cumulative IPC: 2.00785 (Simulation time: 0 hr 0 min 10 sec) 
Heartbeat CPU  0 instructions:    9000001 cycles:    4485315 heartbeat IPC: 1.99623 cumulative IPC: 2.00655 (Simulation time: 0 hr 0 min 12 sec) 
Heartbeat CPU  0 instructions:   10000000 cycles:    4986992 heartbeat IPC: 1.99331 cumulative IPC: 2.00522 (Simulation time: 0 hr 0 min 13 sec) 
Heartbeat CPU  0 instructions:   11000001 cycles:    5480848 heartbeat IPC: 2.02488 cumulative IPC: 2.00699 (Simulation time: 0 hr 0 min 14 sec) 
Heartbeat CPU  0 instructions:   12000000 cycles:    5975593 heartbeat IPC: 2.02124 cumulative IPC: 2.00817 (Simulation time: 0 hr 0 min 16 sec) 
Heartbeat CPU  0 instructions:   13000003 cycles:    6477188 heartbeat IPC: 1.99365 cumulative IPC: 2.00704 (Simulation time: 0 hr 0 min 17 sec) 
Heartbeat CPU  0 instructions:   14000001 cycles:    6978587 heartbeat IPC: 1.99442 cumulative IPC: 2.00614 (Simulation time: 0 hr 0 min 18 sec) 
Heartbeat CPU  0 instructions:   15000003 cycles:    7479950 heartbeat IPC: 1.99457 cumulative IPC: 2.00536 (Simulation time: 0 hr 0 min 19 sec) 
Heartbeat CPU  0 instructions:   16000000 cycles:    7967099 heartbeat IPC: 2.05275 cumulative IPC: 2.00826 (Simulation time: 0 hr 0 min 21 sec) 
Heartbeat CPU  0 instructions:   17000001 cycles:    8468808 heartbeat IPC: 1.99319 cumulative IPC: 2.00737 (Simulation time: 0 hr 0 min 22 sec) 
Heartbeat CPU  0 instructions:   18000001 cycles:    8970129 heartbeat IPC: 1.99473 cumulative IPC: 2.00666 (Simulation time: 0 hr 0 min 23 sec) 
Heartbeat CPU  0 instructions:   19000003 cycles:    9471293 heartbeat IPC: 1.99536 cumulative IPC: 2.00606 (Simulation time: 0 hr 0 min 25 sec) 
Heartbeat CPU  0 instructions:   20000000 cycles:    9967831 heartbeat IPC: 2.01394 cumulative IPC: 2.00645 (Simulation time: 0 hr 0 min 26 sec) 
Heartbeat CPU  0 instructions:   21000001 cycles:   10459787 heartbeat IPC: 2.03270 cumulative IPC: 2.00769 (Simulation time: 0 hr 0 min 27 sec) 
Heartbeat CPU  0 instructions:   22000003 cycles:   10961612 heartbeat IPC: 1.99273 cumulative IPC: 2.00700 (Simulation time: 0 hr 0 min 29 sec) 
Heartbeat CPU  0 instructions:   23000001 cycles:   11463735 heartbeat IPC: 1.99154 cumulative IPC: 2.00633 (Simulation time: 0 hr 0 min 30 sec) 
Heartbeat CPU  0 instructions:   24000000 cycles:   11965239 heartbeat IPC: 1.99400 cumulative IPC: 2.00581 (Simulation time: 0 hr 0 min 31 sec) 
Heartbeat CPU  0 instructions:   25000003 cycles:   12451751 heartbeat IPC: 2.05545 cumulative IPC: 2.00775 (Simulation time: 0 hr 0 min 33 sec) 
Heartbeat CPU  0 instructions:   26000001 cycles:   12953574 heartbeat IPC: 1.99273 cumulative IPC: 2.00717 (Simulation time: 0 hr 0 min 34 sec) 
Heartbeat CPU  0 instructions:   27000003 cycles:   13455550 heartbeat IPC: 1.99213 cumulative IPC: 2.00661 (Simulation time: 0 hr 0 min 35 sec) 
Heartbeat CPU  0 instructions:   28000000 cycles:   13957370 heartbeat IPC: 1.99274 cumulative IPC: 2.00611 (Simulation time: 0 hr 0 min 36 sec) 
Heartbeat CPU  0 instructions:   29000002 cycles:   14454975 heartbeat IPC: 2.00963 cumulative IPC: 2.00623 (Simulation time: 0 hr 0 min 38 sec) 
Heartbeat CPU  0 instructions:   30000000 cycles:   14945289 heartbeat IPC: 2.03951 cumulative IPC: 2.00732 (Simulation time: 0 hr 0 min 39 sec) 
Heartbeat CPU  0 instructions:   31000002 cycles:   15446822 heartbeat IPC: 1.99389 cumulative IPC: 2.00689 (Simulation time: 0 hr 0 min 40 sec) 
Heartbeat CPU  0 instructions:   32000000 cycles:   15948255 heartbeat IPC: 1.99428 cumulative IPC: 2.00649 (Simulation time: 0 hr 0 min 42 sec) 
Heartbeat CPU  0 instructions:   33000001 cycles:   16450258 heartbeat IPC: 1.99202 cumulative IPC: 2.00605 (Simulation time: 0 hr 0 min 43 sec) 
Heartbeat CPU  0 instructions:   34000003 cycles:   16938981 heartbeat IPC: 2.04615 cumulative IPC: 2.00720 (Simulation time: 0 hr 0 min 44 sec) 
Heartbeat CPU  0 instructions:   35000000 cycles:   17438257 heartbeat IPC: 2.00289 cumulative IPC: 2.00708 (Simulation time: 0 hr 0 min 46 sec) 
Heartbeat CPU  0 instructions:   36000000 cycles:   17939506 heartbeat IPC: 1.99502 cumulative IPC: 2.00674 (Simulation time: 0 hr 0 min 47 sec) 
Heartbeat CPU  0 instructions:   37000003 cycles:   18441188 heartbeat IPC: 1.99330 cumulative IPC: 2.00638 (Simulation time: 0 hr 0 min 48 sec) 
Heartbeat CPU  0 instructions:   38000003 cycles:   18941983 heartbeat IPC: 1.99683 cumulative IPC: 2.00613 (Simulation time: 0 hr 0 min 50 sec) 
Heartbeat CPU  0 instructions:   39000003 cycles:   19429506 heartbeat IPC: 2.05119 cumulative IPC: 2.00726 (Simulation time: 0 hr 0 min 51 sec) 
Heartbeat CPU  0 instructions:   40000000 cycles:   19930583 heartbeat IPC: 1.99570 cumulative IPC: 2.00697 (Simulation time: 0 hr 0 min 52 sec) 
Heartbeat CPU  0 instructions:   41000001 cycles:   20432381 heartbeat IPC: 1.99284 cumulative IPC: 2.00662 (Simulation time: 0 hr 0 min 53 sec) 
Heartbeat CPU  0 instructions:   42000002 cycles:   20934296 heartbeat IPC: 1.99237 cumulative IPC: 2.00628 (Simulation time: 0 hr 0 min 55 sec) 
Heartbeat CPU  0 instructions:   43000003 cycles:   21425758 heartbeat IPC: 2.03475 cumulative IPC: 2.00693 (Simulation time: 0 hr 0 min 56 sec) 
Heartbeat CPU  0 instructions:   44000000 cycles:   21922626 heartbeat IPC: 2.01260 cumulative IPC: 2.00706 (Simulation time: 0 hr 0 min 57 sec) 
Heartbeat CPU  0 instructions:   45000001 cycles:   22424572 heartbeat IPC: 1.99225 cumulative IPC: 2.00673 (Simulation time: 0 hr 0 min 59 sec) 
Heartbeat CPU  0 instructions:   46000000 cycles:   22925937 heartbeat IPC: 1.99455 cumulative IPC: 2.00646 (Simulation time: 0 hr 1 min 0 sec) 
Heartbeat CPU  0 instructions:   47000002 cycles:   23427740 heartbeat IPC: 1.99282 cumulative IPC: 2.00617 (Simulation time: 0 hr 1 min 1 sec) 
Heartbeat CPU  0 instructions:   48000000 cycles:   23914324 heartbeat IPC: 2.05514 cumulative IPC: 2.00717 (Simulation time: 0 hr 1 min 3 sec) 
Heartbeat CPU  0 instructions:   49000002 cycles:   24416154 heartbeat IPC: 1.99271 cumulative IPC: 2.00687 (Simulation time: 0 hr 1 min 4 sec) 
Heartbeat CPU  0 instructions:   50000003 cycles:   24917499 heartbeat IPC: 1.99464 cumulative IPC: 2.00662 (Simulation time: 0 hr 1 min 5 sec) 
Heartbeat CPU  0 instructions:   51000003 cycles:   25418776 heartbeat IPC: 1.99490 cumulative IPC: 2.00639 (Simulation time: 0 hr 1 min 6 sec) 
Heartbeat CPU  0 instructions:   52000000 cycles:   25912229 heartbeat IPC: 2.02653 cumulative IPC: 2.00677 (Simulation time: 0 hr 1 min 8 sec) 
Heartbeat CPU  0 instructions:   53000001 cycles:   26407284 heartbeat IPC: 2.01998 cumulative IPC: 2.00702 (Simulation time: 0 hr 1 min 9 sec) 
Heartbeat CPU  0 instructions:   54000003 cycles:   26908917 heartbeat IPC: 1.99349 cumulative IPC: 2.00677 (Simulation time: 0 hr 1 min 10 sec) 
Heartbeat CPU  0 instructions:   55000003 cycles:   27410426 heartbeat IPC: 1.99398 cumulative IPC: 2.00654 (Simulation time: 0 hr 1 min 12 sec) 
Heartbeat CPU  0 instructions:   56000000 cycles:   27911609 heartbeat IPC: 1.99527 cumulative IPC: 2.00633 (Simulation time: 0 hr 1 min 13 sec) 
Heartbeat CPU  0 instructions:   57000002 cycles:   28398597 heartbeat IPC: 2.05344 cumulative IPC: 2.00714 (Simulation time: 0 hr 1 min 14 sec) 
Heartbeat CPU  0 instructions:   58000003 cycles:   28900141 heartbeat IPC: 1.99384 cumulative IPC: 2.00691 (Simulation time: 0 hr 1 min 16 sec) 
Heartbeat CPU  0 instructions:   59000001 cycles:   29401754 heartbeat IPC: 1.99356 cumulative IPC: 2.00668 (Simulation time: 0 hr 1 min 17 sec) 
Heartbeat CPU  0 instructions:   60000000 cycles:   29902857 heartbeat IPC: 1.99560 cumulative IPC: 2.00650 (Simulation time: 0 hr 1 min 18 sec) 
Heartbeat CPU  0 instructions:   61000000 cycles:   30398817 heartbeat IPC: 2.01629 cumulative IPC: 2.00666 (Simulation time: 0 hr 1 min 20 sec) 
Heartbeat CPU  0 instructions:   62000001 cycles:   30891107 heartbeat IPC: 2.03133 cumulative IPC: 2.00705 (Simulation time: 0 hr 1 min 21 sec) 
Heartbeat CPU  0 instructions:   63000001 cycles:   31392872 heartbeat IPC: 1.99296 cumulative IPC: 2.00682 (Simulation time: 0 hr 1 min 22 sec) 
Heartbeat CPU  0 instructions:   64000000 cycles:   31894912 heartbeat IPC: 1.99187 cumulative IPC: 2.00659 (Simulation time: 0 hr 1 min 23 sec) 
Heartbeat CPU  0 instructions:   65000000 cycles:   32396590 heartbeat IPC: 1.99331 cumulative IPC: 2.00638 (Simulation time: 0 hr 1 min 25 sec) 
Heartbeat CPU  0 instructions:   66000003 cycles:   32882800 heartbeat IPC: 2.05673 cumulative IPC: 2.00713 (Simulation time: 0 hr 1 min 26 sec) 
Heartbeat CPU  0 instructions:   67000000 cycles:   33384608 heartbeat IPC: 1.99279 cumulative IPC: 2.00691 (Simulation time: 0 hr 1 min 27 sec) 
Heartbeat CPU  0 instructions:   68000000 cycles:   33886408 heartbeat IPC: 1.99283 cumulative IPC: 2.00670 (Simulation time: 0 hr 1 min 29 sec) 
Heartbeat CPU  0 instructions:   69000001 cycles:   34388430 heartbeat IPC: 1.99195 cumulative IPC: 2.00649 (Simulation time: 0 hr 1 min 30 sec) 
Heartbeat CPU  0 instructions:   70000000 cycles:   34885722 heartbeat IPC: 2.01089 cumulative IPC: 2.00655 (Simulation time: 0 hr 1 min 31 sec) 
Heartbeat CPU  0 instructions:   71000001 cycles:   35376210 heartbeat IPC: 2.03879 cumulative IPC: 2.00700 (Simulation time: 0 hr 1 min 33 sec) 
Heartbeat CPU  0 instructions:   72000000 cycles:   35878092 heartbeat IPC: 1.99250 cumulative IPC: 2.00680 (Simulation time: 0 hr 1 min 34 sec) 
Heartbeat CPU  0 instructions:   73000002 cycles:   36379190 heartbeat IPC: 1.99562 cumulative IPC: 2.00664 (Simulation time: 0 hr 1 min 35 sec) 
Heartbeat CPU  0 instructions:   74000003 cycles:   36880939 heartbeat IPC: 1.99303 cumulative IPC: 2.00646 (Simulation time: 0 hr 1 min 37 sec) 
Heartbeat CPU  0 instructions:   75000001 cycles:   37369650 heartbeat IPC: 2.04620 cumulative IPC: 2.00698 (Simulation time: 0 hr 1 min 38 sec) 
Heartbeat CPU  0 instructions:   76000000 cycles:   37869018 heartbeat IPC: 2.00253 cumulative IPC: 2.00692 (Simulation time: 0 hr 1 min 39 sec) 
Heartbeat CPU  0 instructions:   77000000 cycles:   38370748 heartbeat IPC: 1.99310 cumulative IPC: 2.00674 (Simulation time: 0 hr 1 min 40 sec) 
Heartbeat CPU  0 instructions:   78000003 cycles:   38872221 heartbeat IPC: 1.99413 cumulative IPC: 2.00657 (Simulation time: 0 hr 1 min 42 sec) 
Heartbeat CPU  0 instructions:   79000001 cycles:   39372577 heartbeat IPC: 1.99857 cumulative IPC: 2.00647 (Simulation time: 0 hr 1 min 43 sec) 
Heartbeat CPU  0 instructions:   80000000 cycles:   39861084 heartbeat IPC: 2.04705 cumulative IPC: 2.00697 (Simulation time: 0 hr 1 min 44 sec) 
Heartbeat CPU  0 instructions:   81000003 cycles:   40362058 heartbeat IPC: 1.99612 cumulative IPC: 2.00684 (Simulation time: 0 hr 1 min 46 sec) 
Heartbeat CPU  0 instructions:   82000003 cycles:   40863594 heartbeat IPC: 1.99387 cumulative IPC: 2.00668 (Simulation time: 0 hr 1 min 47 sec) 
Heartbeat CPU  0 instructions:   83000001 cycles:   41365268 heartbeat IPC: 1.99332 cumulative IPC: 2.00651 (Simulation time: 0 hr 1 min 48 sec) 
Heartbeat CPU  0 instructions:   84000000 cycles:   41856489 heartbeat IPC: 2.03574 cumulative IPC: 2.00686 (Simulation time: 0 hr 1 min 50 sec) 
Heartbeat CPU  0 instructions:   85000002 cycles:   42353957 heartbeat IPC: 2.01018 cumulative IPC: 2.00690 (Simulation time: 0 hr 1 min 51 sec) 
Heartbeat CPU  0 instructions:   86000002 cycles:   42855845 heartbeat IPC: 1.99248 cumulative IPC: 2.00673 (Simulation time: 0 hr 1 min 52 sec) 
Heartbeat CPU  0 instructions:   87000002 cycles:   43357377 heartbeat IPC: 1.99389 cumulative IPC: 2.00658 (Simulation time: 0 hr 1 min 54 sec) 
Heartbeat CPU  0 instructions:   88000000 cycles:   43859237 heartbeat IPC: 1.99258 cumulative IPC: 2.00642 (Simulation time: 0 hr 1 min 55 sec) 
Heartbeat CPU  0 instructions:   89000003 cycles:   44345879 heartbeat IPC: 2.05490 cumulative IPC: 2.00695 (Simulation time: 0 hr 1 min 56 sec) 
Heartbeat CPU  0 instructions:   90000002 cycles:   44847916 heartbeat IPC: 1.99188 cumulative IPC: 2.00678 (Simulation time: 0 hr 1 min 58 sec) 
Heartbeat CPU  0 instructions:   91000000 cycles:   45349285 heartbeat IPC: 1.99453 cumulative IPC: 2.00665 (Simulation time: 0 hr 1 min 59 sec) 
Heartbeat CPU  0 instructions:   92000000 cycles:   45850931 heartbeat IPC: 1.99344 cumulative IPC: 2.00650 (Simulation time: 0 hr 2 min 0 sec) 
Heartbeat CPU  0 instructions:   93000002 cycles:   46343724 heartbeat IPC: 2.02925 cumulative IPC: 2.00674 (Simulation time: 0 hr 2 min 1 sec) 
Heartbeat CPU  0 instructions:   94000003 cycles:   46839466 heartbeat IPC: 2.01718 cumulative IPC: 2.00685 (Simulation time: 0 hr 2 min 3 sec) 
Heartbeat CPU  0 instructions:   95000003 cycles:   47341022 heartbeat IPC: 1.99380 cumulative IPC: 2.00672 (Simulation time: 0 hr 2 min 4 sec) 
Heartbeat CPU  0 instructions:   96000000 cycles:   47842641 heartbeat IPC: 1.99354 cumulative IPC: 2.00658 (Simulation time: 0 hr 2 min 5 sec) 
Heartbeat CPU  0 instructions:   97000000 cycles:   48343980 heartbeat IPC: 1.99466 cumulative IPC: 2.00645 (Simulation time: 0 hr 2 min 7 sec) 
Heartbeat CPU  0 instructions:   98000000 cycles:   48830660 heartbeat IPC: 2.05474 cumulative IPC: 2.00694 (Simulation time: 0 hr 2 min 8 sec) 
Heartbeat CPU  0 instructions:   99000002 cycles:   49332282 heartbeat IPC: 1.99354 cumulative IPC: 2.00680 (Simulation time: 0 hr 2 min 9 sec) 
Heartbeat CPU  0 instructions:  100000000 cycles:   49833848 heartbeat IPC: 1.99375 cumulative IPC: 2.00667 (Simulation time: 0 hr 2 min 11 sec) 

Warmup complete CPU  0 instructions:  100000003 cycles:   49833849 (Simulation time: 0 hr 2 min 11 sec) 

Heartbeat CPU  0 instructions:  101000001 cycles:   50721996 heartbeat IPC: 1.12594 cumulative IPC: 1.12594 (Simulation time: 0 hr 2 min 12 sec) 
Heartbeat CPU  0 instructions:  102000002 cycles:   51604518 heartbeat IPC: 1.13312 cumulative IPC: 1.12952 (Simulation time: 0 hr 2 min 14 sec) 
Heartbeat CPU  0 instructions:  103000001 cycles:   52500707 heartbeat IPC: 1.11583 cumulative IPC: 1.12492 (Simulation time: 0 hr 2 min 15 sec) 
Heartbeat CPU  0 instructions:  104000000 cycles:   53398919 heartbeat IPC: 1.11332 cumulative IPC: 1.12200 (Simulation time: 0 hr 2 min 17 sec) 
Heartbeat CPU  0 instructions:  105000003 cycles:   54273117 heartbeat IPC: 1.14391 cumulative IPC: 1.12631 (Simulation time: 0 hr 2 min 18 sec) 
Heartbeat CPU  0 instructions:  106000001 cycles:   55156367 heartbeat IPC: 1.13218 cumulative IPC: 1.12729 (Simulation time: 0 hr 2 min 19 sec) 
Heartbeat CPU  0 instructions:  107000002 cycles:   56041727 heartbeat IPC: 1.12949 cumulative IPC: 1.12760 (Simulation time: 0 hr 2 min 21 sec) 
Heartbeat CPU  0 instructions:  108000000 cycles:   56941858 heartbeat IPC: 1.11095 cumulative IPC: 1.12549 (Simulation time: 0 hr 2 min 22 sec) 
Heartbeat CPU  0 instructions:  109000003 cycles:   57844573 heartbeat IPC: 1.10777 cumulative IPC: 1.12349 (Simulation time: 0 hr 2 min 24 sec) 
Heartbeat CPU  0 instructions:  110000001 cycles:   58729150 heartbeat IPC: 1.13048 cumulative IPC: 1.12419 (Simulation time: 0 hr 2 min 25 sec) 
Heartbeat CPU  0 instructions:  111000003 cycles:   59606581 heartbeat IPC: 1.13969 cumulative IPC: 1.12558 (Simulation time: 0 hr 2 min 27 sec) 
Heartbeat CPU  0 instructions:  112000000 cycles:   60499371 heartbeat IPC: 1.12008 cumulative IPC: 1.12512 (Simulation time: 0 hr 2 min 28 sec) 
Heartbeat CPU  0 instructions:  113000001 cycles:   61394377 heartbeat IPC: 1.11731 cumulative IPC: 1.12452 (Simulation time: 0 hr 2 min 30 sec) 
Heartbeat CPU  0 instructions:  114000002 cycles:   62290196 heartbeat IPC: 1.11630 cumulative IPC: 1.12392 (Simulation time: 0 hr 2 min 31 sec) 
Heartbeat CPU  0 instructions:  115000000 cycles:   63175966 heartbeat IPC: 1.12896 cumulative IPC: 1.12426 (Simulation time: 0 hr 2 min 33 sec) 
Heartbeat CPU  0 instructions:  116000000 cycles:   64053622 heartbeat IPC: 1.13940 cumulative IPC: 1.12519 (Simulation time: 0 hr 2 min 34 sec) 
Heartbeat CPU  0 instructions:  117000002 cycles:   64943069 heartbeat IPC: 1.12430 cumulative IPC: 1.12514 (Simulation time: 0 hr 2 min 36 sec) 
Heartbeat CPU  0 instructions:  118000001 cycles:   65833075 heartbeat IPC: 1.12359 cumulative IPC: 1.12505 (Simulation time: 0 hr 2 min 37 sec) 
Heartbeat CPU  0 instructions:  119000002 cycles:   66730592 heartbeat IPC: 1.11419 cumulative IPC: 1.12448 (Simulation time: 0 hr 2 min 39 sec) 
Heartbeat CPU  0 instructions:  120000000 cycles:   67618857 heartbeat IPC: 1.12579 cumulative IPC: 1.12454 (Simulation time: 0 hr 2 min 40 sec) 
Heartbeat CPU  0 instructions:  121000001 cycles:   68497169 heartbeat IPC: 1.13855 cumulative IPC: 1.12520 (Simulation time: 0 hr 2 min 42 sec) 
Heartbeat CPU  0 instructions:  122000002 cycles:   69382740 heartbeat IPC: 1.12922 cumulative IPC: 1.12538 (Simulation time: 0 hr 2 min 43 sec) 
Heartbeat CPU  0 instructions:  123000000 cycles:   70273443 heartbeat IPC: 1.12271 cumulative IPC: 1.12527 (Simulation time: 0 hr 2 min 45 sec) 
Heartbeat CPU  0 instructions:  124000000 cycles:   71176483 heartbeat IPC: 1.10737 cumulative IPC: 1.12451 (Simulation time: 0 hr 2 min 46 sec) 
Heartbeat CPU  0 instructions:  125000000 cycles:   72071797 heartbeat IPC: 1.11693 cumulative IPC: 1.12420 (Simulation time: 0 hr 2 min 48 sec) 
Heartbeat CPU  0 instructions:  126000000 cycles:   72950119 heartbeat IPC: 1.13853 cumulative IPC: 1.12475 (Simulation time: 0 hr 2 min 49 sec) 
Heartbeat CPU  0 instructions:  127000000 cycles:   73836008 heartbeat IPC: 1.12881 cumulative IPC: 1.12490 (Simulation time: 0 hr 2 min 51 sec) 
Heartbeat CPU  0 instructions:  128000000 cycles:   74720664 heartbeat IPC: 1.13038 cumulative IPC: 1.12509 (Simulation time: 0 hr 2 min 52 sec) 
Heartbeat CPU  0 instructions:  129000002 cycles:   75619687 heartbeat IPC: 1.11232 cumulative IPC: 1.12465 (Simulation time: 0 hr 2 min 54 sec) 
Heartbeat CPU  0 instructions:  130000002 cycles:   76516460 heartbeat IPC: 1.11511 cumulative IPC: 1.12433 (Simulation time: 0 hr 2 min 55 sec) 
Heartbeat CPU  0 instructions:  131000002 cycles:   77395191 heartbeat IPC: 1.13800 cumulative IPC: 1.12476 (Simulation time: 0 hr 2 min 57 sec) 
Heartbeat CPU  0 instructions:  132000000 cycles:   78274247 heartbeat IPC: 1.13758 cumulative IPC: 1.12516 (Simulation time: 0 hr 2 min 58 sec) 
Heartbeat CPU  0 instructions:  133000000 cycles:   79161610 heartbeat IPC: 1.12693 cumulative IPC: 1.12521 (Simulation time: 0 hr 3 min 0 sec) 
Heartbeat CPU  0 instructions:  134000000 cycles:   80051500 heartbeat IPC: 1.12373 cumulative IPC: 1.12517 (Simulation time: 0 hr 3 min 1 sec) 
Heartbeat CPU  0 instructions:  135000002 cycles:   80954726 heartbeat IPC: 1.10714 cumulative IPC: 1.12465 (Simulation time: 0 hr 3 min 3 sec) 
Heartbeat CPU  0 instructions:  136000000 cycles:   81836637 heartbeat IPC: 1.13390 cumulative IPC: 1.12490 (Simulation time: 0 hr 3 min 4 sec) 
Heartbeat CPU  0 instructions:  137000001 cycles:   82716065 heartbeat IPC: 1.13710 cumulative IPC: 1.12523 (Simulation time: 0 hr 3 min 5 sec) 
Heartbeat CPU  0 instructions:  138000003 cycles:   83605365 heartbeat IPC: 1.12448 cumulative IPC: 1.12521 (Simulation time: 0 hr 3 min 7 sec) 
Heartbeat CPU  0 instructions:  139000003 cycles:   84493394 heartbeat IPC: 1.12609 cumulative IPC: 1.12523 (Simulation time: 0 hr 3 min 8 sec) 
Heartbeat CPU  0 instructions:  140000000 cycles:   85395931 heartbeat IPC: 1.10798 cumulative IPC: 1.12479 (Simulation time: 0 hr 3 min 10 sec) 
Heartbeat CPU  0 instructions:  141000003 cycles:   86279271 heartbeat IPC: 1.13207 cumulative IPC: 1.12497 (Simulation time: 0 hr 3 min 11 sec) 
Heartbeat CPU  0 instructions:  142000000 cycles:   87156257 heartbeat IPC: 1.14027 cumulative IPC: 1.12533 (Simulation time: 0 hr 3 min 13 sec) 
Heartbeat CPU  0 instructions:  143000000 cycles:   88033131 heartbeat IPC: 1.14041 cumulative IPC: 1.12568 (Simulation time: 0 hr 3 min 14 sec) 
Heartbeat CPU  0 instructions:  144000000 cycles:   88924551 heartbeat IPC: 1.12181 cumulative IPC: 1.12559 (Simulation time: 0 hr 3 min 16 sec) 
Heartbeat CPU  0 instructions:  145000002 cycles:   89828494 heartbeat IPC: 1.10627 cumulative IPC: 1.12515 (Simulation time: 0 hr 3 min 17 sec) 
Heartbeat CPU  0 instructions:  146000002 cycles:   90722015 heartbeat IPC: 1.11917 cumulative IPC: 1.12502 (Simulation time: 0 hr 3 min 19 sec) 
Heartbeat CPU  0 instructions:  147000002 cycles:   91683582 heartbeat IPC: 1.03997 cumulative IPC: 1.12307 (Simulation time: 0 hr 3 min 20 sec) 
Heartbeat CPU  0 instructions:  148000000 cycles:   93070349 heartbeat IPC: 0.72110 cumulative IPC: 1.11017 (Simulation time: 0 hr 3 min 22 sec) 
Heartbeat CPU  0 instructions:  149000002 cycles:   94461523 heartbeat IPC: 0.71882 cumulative IPC: 1.09797 (Simulation time: 0 hr 3 min 24 sec) 
Heartbeat CPU  0 instructions:  150000002 cycles:   95844407 heartbeat IPC: 0.72313 cumulative IPC: 1.08671 (Simulation time: 0 hr 3 min 25 sec) 
Heartbeat CPU  0 instructions:  151000000 cycles:   97213098 heartbeat IPC: 0.73062 cumulative IPC: 1.07642 (Simulation time: 0 hr 3 min 27 sec) 
Heartbeat CPU  0 instructions:  152000000 cycles:   98598105 heartbeat IPC: 0.72202 cumulative IPC: 1.06635 (Simulation time: 0 hr 3 min 29 sec) 
Heartbeat CPU  0 instructions:  153000003 cycles:   99997384 heartbeat IPC: 0.71466 cumulative IPC: 1.05654 (Simulation time: 0 hr 3 min 30 sec) 
Heartbeat CPU  0 instructions:  154000002 cycles:  101393333 heartbeat IPC: 0.71636 cumulative IPC: 1.04733 (Simulation time: 0 hr 3 min 32 sec) 
Heartbeat CPU  0 instructions:  155000003 cycles:  102789140 heartbeat IPC: 0.71643 cumulative IPC: 1.03861 (Simulation time: 0 hr 3 min 34 sec) 
Heartbeat CPU  0 instructions:  156000000 cycles:  104178101 heartbeat IPC: 0.71996 cumulative IPC: 1.03047 (Simulation time: 0 hr 3 min 35 sec) 
Heartbeat CPU  0 instructions:  157000003 cycles:  105574377 heartbeat IPC: 0.71619 cumulative IPC: 1.02260 (Simulation time: 0 hr 3 min 37 sec) 
Heartbeat CPU  0 instructions:  158000000 cycles:  106970711 heartbeat IPC: 0.71616 cumulative IPC: 1.01511 (Simulation time: 0 hr 3 min 39 sec) 
Heartbeat CPU  0 instructions:  159000003 cycles:  108378599 heartbeat IPC: 0.71029 cumulative IPC: 1.00778 (Simulation time: 0 hr 3 min 40 sec) 
Heartbeat CPU  0 instructions:  160000000 cycles:  109784657 heartbeat IPC: 0.71121 cumulative IPC: 1.00082 (Simulation time: 0 hr 3 min 42 sec) 
Heartbeat CPU  0 instructions:  161000000 cycles:  111176034 heartbeat IPC: 0.71871 cumulative IPC: 0.99442 (Simulation time: 0 hr 3 min 44 sec) 
Heartbeat CPU  0 instructions:  162000000 cycles:  112588665 heartbeat IPC: 0.70790 cumulative IPC: 0.98797 (Simulation time: 0 hr 3 min 45 sec) 
Heartbeat CPU  0 instructions:  163000002 cycles:  113991982 heartbeat IPC: 0.71260 cumulative IPC: 0.98195 (Simulation time: 0 hr 3 min 47 sec) 
Heartbeat CPU  0 instructions:  164000000 cycles:  115384025 heartbeat IPC: 0.71837 cumulative IPC: 0.97635 (Simulation time: 0 hr 3 min 49 sec) 
Heartbeat CPU  0 instructions:  165000003 cycles:  116776278 heartbeat IPC: 0.71826 cumulative IPC: 0.97098 (Simulation time: 0 hr 3 min 50 sec) 
Heartbeat CPU  0 instructions:  166000001 cycles:  118172607 heartbeat IPC: 0.71616 cumulative IPC: 0.96578 (Simulation time: 0 hr 3 min 52 sec) 
Heartbeat CPU  0 instructions:  167000001 cycles:  119563685 heartbeat IPC: 0.71887 cumulative IPC: 0.96085 (Simulation time: 0 hr 3 min 54 sec) 
Heartbeat CPU  0 instructions:  168000000 cycles:  120964866 heartbeat IPC: 0.71368 cumulative IPC: 0.95598 (Simulation time: 0 hr 3 min 55 sec) 
Heartbeat CPU  0 instructions:  169000002 cycles:  122372821 heartbeat IPC: 0.71025 cumulative IPC: 0.95121 (Simulation time: 0 hr 3 min 57 sec) 
Heartbeat CPU  0 instructions:  170000002 cycles:  123761538 heartbeat IPC: 0.72009 cumulative IPC: 0.94687 (Simulation time: 0 hr 3 min 59 sec) 
Heartbeat CPU  0 instructions:  171000002 cycles:  125151480 heartbeat IPC: 0.71945 cumulative IPC: 0.94267 (Simulation time: 0 hr 4 min 0 sec) 
Heartbeat CPU  0 instructions:  172000000 cycles:  126542434 heartbeat IPC: 0.71893 cumulative IPC: 0.93862 (Simulation time: 0 hr 4 min 2 sec) 
Heartbeat CPU  0 instructions:  173000002 cycles:  127921352 heartbeat IPC: 0.72521 cumulative IPC: 0.93485 (Simulation time: 0 hr 4 min 4 sec) 
Heartbeat CPU  0 instructions:  174000003 cycles:  129317003 heartbeat IPC: 0.71651 cumulative IPC: 0.93101 (Simulation time: 0 hr 4 min 5 sec) 
Heartbeat CPU  0 instructions:  175000002 cycles:  130729680 heartbeat IPC: 0.70788 cumulative IPC: 0.92712 (Simulation time: 0 hr 4 min 7 sec) 
Heartbeat CPU  0 instructions:  176000000 cycles:  132122393 heartbeat IPC: 0.71802 cumulative IPC: 0.92358 (Simulation time: 0 hr 4 min 9 sec) 
Heartbeat CPU  0 instructions:  177000003 cycles:  133534420 heartbeat IPC: 0.70820 cumulative IPC: 0.91995 (Simulation time: 0 hr 4 min 10 sec) 
Heartbeat CPU  0 instructions:  178000000 cycles:  134938346 heartbeat IPC: 0.71229 cumulative IPC: 0.91652 (Simulation time: 0 hr 4 min 12 sec) 
Heartbeat CPU  0 instructions:  179000002 cycles:  136332797 heartbeat IPC: 0.71713 cumulative IPC: 0.91331 (Simulation time: 0 hr 4 min 14 sec) 
Heartbeat CPU  0 instructions:  180000000 cycles:  137725013 heartbeat IPC: 0.71828 cumulative IPC: 0.91022 (Simulation time: 0 hr 4 min 15 sec) 
Heartbeat CPU  0 instructions:  181000003 cycles:  139123647 heartbeat IPC: 0.71499 cumulative IPC: 0.90716 (Simulation time: 0 hr 4 min 17 sec) 
Heartbeat CPU  0 instructions:  182000002 cycles:  140526355 heartbeat IPC: 0.71291 cumulative IPC: 0.90415 (Simulation time: 0 hr 4 min 19 sec) 
Heartbeat CPU  0 instructions:  183000000 cycles:  141916206 heartbeat IPC: 0.71950 cumulative IPC: 0.90137 (Simulation time: 0 hr 4 min 20 sec) 
Heartbeat CPU  0 instructions:  184000000 cycles:  143315268 heartbeat IPC: 0.71476 cumulative IPC: 0.89857 (Simulation time: 0 hr 4 min 22 sec) 
Heartbeat CPU  0 instructions:  185000003 cycles:  144726011 heartbeat IPC: 0.70885 cumulative IPC: 0.89575 (Simulation time: 0 hr 4 min 24 sec) 
Heartbeat CPU  0 instructions:  186000001 cycles:  146105957 heartbeat IPC: 0.72466 cumulative IPC: 0.89330 (Simulation time: 0 hr 4 min 25 sec) 
Heartbeat CPU  0 instructions:  187000002 cycles:  147513789 heartbeat IPC: 0.71031 cumulative IPC: 0.89066 (Simulation time: 0 hr 4 min 27 sec) 
Heartbeat CPU  0 instructions:  188000000 cycles:  148909285 heartbeat IPC: 0.71659 cumulative IPC: 0.88821 (Simulation time: 0 hr 4 min 29 sec) 
Heartbeat CPU  0 instructions:  189000001 cycles:  150307217 heartbeat IPC: 0.71534 cumulative IPC: 0.88581 (Simulation time: 0 hr 4 min 30 sec) 
Heartbeat CPU  0 instructions:  190000003 cycles:  151710870 heartbeat IPC: 0.71243 cumulative IPC: 0.88342 (Simulation time: 0 hr 4 min 32 sec) 
Heartbeat CPU  0 instructions:  191000002 cycles:  153114913 heartbeat IPC: 0.71223 cumulative IPC: 0.88109 (Simulation time: 0 hr 4 min 34 sec) 
Heartbeat CPU  0 instructions:  192000000 cycles:  154462202 heartbeat IPC: 0.74223 cumulative IPC: 0.87930 (Simulation time: 0 hr 4 min 35 sec) 
Heartbeat CPU  0 instructions:  193000003 cycles:  155358265 heartbeat IPC: 1.11600 cumulative IPC: 0.88131 (Simulation time: 0 hr 4 min 37 sec) 
Heartbeat CPU  0 instructions:  194000001 cycles:  159070860 heartbeat IPC: 0.26935 cumulative IPC: 0.86051 (Simulation time: 0 hr 4 min 40 sec) 
Heartbeat CPU  0 instructions:  195000000 cycles:  162055258 heartbeat IPC: 0.33508 cumulative IPC: 0.84654 (Simulation time: 0 hr 4 min 42 sec) 
Heartbeat CPU  0 instructions:  196000000 cycles:  162764021 heartbeat IPC: 1.41091 cumulative IPC: 0.85008 (Simulation time: 0 hr 4 min 44 sec) 
Heartbeat CPU  0 instructions:  197000000 cycles:  163472043 heartbeat IPC: 1.41239 cumulative IPC: 0.85359 (Simulation time: 0 hr 4 min 45 sec) 
Heartbeat CPU  0 instructions:  198000003 cycles:  164181019 heartbeat IPC: 1.41049 cumulative IPC: 0.85704 (Simulation time: 0 hr 4 min 47 sec) 
Heartbeat CPU  0 instructions:  199000002 cycles:  164901637 heartbeat IPC: 1.38770 cumulative IPC: 0.86036 (Simulation time: 0 hr 4 min 48 sec) 
Heartbeat CPU  0 instructions:  200000000 cycles:  165615716 heartbeat IPC: 1.40040 cumulative IPC: 0.86369 (Simulation time: 0 hr 4 min 50 sec) 
Finished CPU 0 instructions: 100000000 cycles: 115781896 cumulative IPC: 0.86369 (Simulation time: 0 hr 4 min 50 sec) 

ChampSim completed all CPUs

[ROI Statistics]
Core_0_instructions 100000000
Core_0_cycles 115781896
Core_0_IPC 0.86369

Core_0_branch_prediction_accuracy 99.15344
Core_0_branch_MPKI 0.35029
Core_0_average_ROB_occupancy_at_mispredict 249.76454

Core_0_L1D_total_access 48429998
Core_0_L1D_total_hit 46464044
Core_0_L1D_total_miss 1965954
Core_0_L1D_loads 23113943
Core_0_L1D_load_hit 22440955
Core_0_L1D_load_miss 672988
Core_0_L1D_RFOs 4489412
Core_0_L1D_RFO_hit 4174600
Core_0_L1D_RFO_miss 314812
Core_0_L1D_prefetches 20826643
Core_0_L1D_prefetch_hit 19848489
Core_0_L1D_prefetch_miss 978154
Core_0_L1D_writebacks 0
Core_0_L1D_writeback_hit 0
Core_0_L1D_writeback_miss 0
Core_0_L1D_prefetch_requested 59098111
Core_0_L1D_prefetch_issued 56951107
Core_0_L1D_prefetch_useful 1497044
Core_0_L1D_prefetch_useless 1257894
Core_0_L1D_prefetch_late 282861
Core_0_L1D_average_miss_latency 16229868.41078

Core_0_L1I_total_access 22726924
Core_0_L1I_total_hit 22726704
Core_0_L1I_total_miss 220
Core_0_L1I_loads 22726924
Core_0_L1I_load_hit 22726704
Core_0_L1I_load_miss 220
Core_0_L1I_RFOs 0
Core_0_L1I_RFO_hit 0
Core_0_L1I_RFO_miss 0
Core_0_L1I_prefetches 0
Core_0_L1I_prefetch_hit 0
Core_0_L1I_prefetch_miss 0
Core_0_L1I_writebacks 0
Core_0_L1I_writeback_hit 0
Core_0_L1I_writeback_miss 0
Core_0_L1I_prefetch_requested 0
Core_0_L1I_prefetch_issued 0
Core_0_L1I_prefetch_useful 0
Core_0_L1I_prefetch_useless 0
Core_0_L1I_prefetch_late 0
Core_0_L1I_average_miss_latency 255.03182

Core_0_L2C_total_access 2524828
Core_0_L2C_total_hit 1479109
Core_0_L2C_total_miss 1045719
Core_0_L2C_loads 391446
Core_0_L2C_load_hit 328933
Core_0_L2C_load_miss 62513
Core_0_L2C_RFOs 314656
Core_0_L2C_RFO_hit 122984
Core_0_L2C_RFO_miss 191672
Core_0_L2C_prefetches 1259906
Core_0_L2C_prefetch_hit 468497
Core_0_L2C_prefetch_miss 791409
Core_0_L2C_writebacks 558820
Core_0_L2C_writeback_hit 558695
Core_0_L2C_writeback_miss 125
Core_0_L2C_prefetch_requested 0
Core_0_L2C_prefetch_issued 0
Core_0_L2C_prefetch_useful 153780
Core_0_L2C_prefetch_useless 1129115
Core_0_L2C_prefetch_late 0
Core_0_L2C_average_miss_latency 246.75075

Core_0_LLC_total_access 1452132
Core_0_LLC_total_hit 490539
Core_0_LLC_total_miss 961593
Core_0_LLC_loads 62513
Core_0_LLC_load_hit 18882
Core_0_LLC_load_miss 43631
Core_0_LLC_RFOs 191672
Core_0_LLC_RFO_hit 13942
Core_0_LLC_RFO_miss 177730
Core_0_LLC_prefetches 791408
Core_0_LLC_prefetch_hit 67186
Core_0_LLC_prefetch_miss 724222
Core_0_LLC_writebacks 406539
Core_0_LLC_writeback_hit 390529
Core_0_LLC_writeback_miss 16010
Core_0_LLC_prefetch_requested 0
Core_0_LLC_prefetch_issued 0
Core_0_LLC_prefetch_useful 38336
Core_0_LLC_prefetch_useless 1033426
Core_0_LLC_prefetch_late 0
Core_0_LLC_average_miss_latency 234.14207

Core_0_major_page_fault 0
Core_0_minor_page_fault 15627

CPU 0 L1D next line prefetcher final stats
Channel_0_RQ_row_buffer_hit 317482
Channel_0_RQ_row_buffer_miss 628066
Channel_0_WQ_row_buffer_hit 75339
Channel_0_WQ_row_buffer_miss 300017
Channel_0_WQ_full 0
Channel_0_dbus_congested 341852

avg_congested_cycle 9
