*************************************************
   ChampSim Multicore Out-of-Order Simulator
   Last compiled: Dec 23 2023 15:57:17
*************************************************

trace_0 ./test_trace/437.leslie3d-134B.champsimtrace.xz
CPU 0 L2C IP-based stride prefetcher
Initialize DRRIP state
Assign rand_sets[0]: 454  LLC: 2048
rand_sets[0]: 454
Assign rand_sets[1]: 1662  LLC: 2048
rand_sets[1]: 1662
Assign rand_sets[2]: 1921  LLC: 2048
rand_sets[2]: 1921
Assign rand_sets[3]: 1131  LLC: 2048
rand_sets[3]: 1131
Assign rand_sets[4]: 331  LLC: 2048
rand_sets[4]: 331
Assign rand_sets[5]: 1531  LLC: 2048
rand_sets[5]: 1531
Assign rand_sets[6]: 482  LLC: 2048
rand_sets[6]: 482
Assign rand_sets[7]: 1275  LLC: 2048
rand_sets[7]: 1275
Assign rand_sets[8]: 1876  LLC: 2048
rand_sets[8]: 1876
Assign rand_sets[9]: 2038  LLC: 2048
rand_sets[9]: 2038
Assign rand_sets[10]: 701  LLC: 2048
rand_sets[10]: 701
Assign rand_sets[11]: 479  LLC: 2048
rand_sets[11]: 479
Assign rand_sets[12]: 892  LLC: 2048
rand_sets[12]: 892
Assign rand_sets[13]: 1820  LLC: 2048
rand_sets[13]: 1820
Assign rand_sets[14]: 1505  LLC: 2048
rand_sets[14]: 1505
Assign rand_sets[15]: 1159  LLC: 2048
rand_sets[15]: 1159
Assign rand_sets[16]: 513  LLC: 2048
rand_sets[16]: 513
Assign rand_sets[17]: 703  LLC: 2048
rand_sets[17]: 703
Assign rand_sets[18]: 561  LLC: 2048
rand_sets[18]: 561
Assign rand_sets[19]: 990  LLC: 2048
rand_sets[19]: 990
Assign rand_sets[20]: 342  LLC: 2048
rand_sets[20]: 342
Assign rand_sets[21]: 882  LLC: 2048
rand_sets[21]: 882
Assign rand_sets[22]: 15  LLC: 2048
rand_sets[22]: 15
Assign rand_sets[23]: 71  LLC: 2048
rand_sets[23]: 71
Assign rand_sets[24]: 1127  LLC: 2048
rand_sets[24]: 1127
Assign rand_sets[25]: 1382  LLC: 2048
rand_sets[25]: 1382
Assign rand_sets[26]: 647  LLC: 2048
rand_sets[26]: 647
Assign rand_sets[27]: 857  LLC: 2048
rand_sets[27]: 857
Assign rand_sets[28]: 1450  LLC: 2048
rand_sets[28]: 1450
Assign rand_sets[29]: 1160  LLC: 2048
rand_sets[29]: 1160
Assign rand_sets[30]: 1852  LLC: 2048
rand_sets[30]: 1852
Assign rand_sets[31]: 1881  LLC: 2048
rand_sets[31]: 1881
Assign rand_sets[32]: 1770  LLC: 2048
rand_sets[32]: 1770
Assign rand_sets[33]: 1622  LLC: 2048
rand_sets[33]: 1622
Assign rand_sets[34]: 275  LLC: 2048
rand_sets[34]: 275
Assign rand_sets[35]: 635  LLC: 2048
rand_sets[35]: 635
Assign rand_sets[36]: 466  LLC: 2048
rand_sets[36]: 466
Assign rand_sets[37]: 1413  LLC: 2048
rand_sets[37]: 1413
Assign rand_sets[38]: 417  LLC: 2048
rand_sets[38]: 417
Assign rand_sets[39]: 472  LLC: 2048
rand_sets[39]: 472
Assign rand_sets[40]: 1340  LLC: 2048
rand_sets[40]: 1340
Assign rand_sets[41]: 852  LLC: 2048
rand_sets[41]: 852
Assign rand_sets[42]: 1365  LLC: 2048
rand_sets[42]: 1365
Assign rand_sets[43]: 47  LLC: 2048
rand_sets[43]: 47
Assign rand_sets[44]: 823  LLC: 2048
rand_sets[44]: 823
Assign rand_sets[45]: 686  LLC: 2048
rand_sets[45]: 686
Assign rand_sets[46]: 1637  LLC: 2048
rand_sets[46]: 1637
Assign rand_sets[47]: 1115  LLC: 2048
rand_sets[47]: 1115
Assign rand_sets[48]: 986  LLC: 2048
rand_sets[48]: 986
Assign rand_sets[49]: 258  LLC: 2048
rand_sets[49]: 258
Assign rand_sets[50]: 633  LLC: 2048
rand_sets[50]: 633
Assign rand_sets[51]: 920  LLC: 2048
rand_sets[51]: 920
Assign rand_sets[52]: 204  LLC: 2048
rand_sets[52]: 204
Assign rand_sets[53]: 227  LLC: 2048
rand_sets[53]: 227
Assign rand_sets[54]: 1818  LLC: 2048
rand_sets[54]: 1818
Assign rand_sets[55]: 886  LLC: 2048
rand_sets[55]: 886
Assign rand_sets[56]: 1422  LLC: 2048
rand_sets[56]: 1422
Assign rand_sets[57]: 607  LLC: 2048
rand_sets[57]: 607
Assign rand_sets[58]: 217  LLC: 2048
rand_sets[58]: 217
Assign rand_sets[59]: 1945  LLC: 2048
rand_sets[59]: 1945
Assign rand_sets[60]: 143  LLC: 2048
rand_sets[60]: 143
Assign rand_sets[61]: 1311  LLC: 2048
rand_sets[61]: 1311
Assign rand_sets[62]: 319  LLC: 2048
rand_sets[62]: 319
Assign rand_sets[63]: 1846  LLC: 2048
rand_sets[63]: 1846
warmup_instructions 100000000
simulation_instructions 100000000
champsim_seed 218

num_cpus 1
cpu_freq 4000
dram_io_freq 2400
page_size 4096
block_size 64
max_read_per_cycle 8
max_fill_per_cycle 1
dram_channels 1
dram_ranks 1
dram_banks 8
dram_rows 65536
dram_columns 128
dram_row_size 8
dram_size 4096
dram_pages 1048576

fetch_width 6
decode_width 6
exec_width 4
lq_width 2
sq_width 2
retire_width 4
scheduler_size 128
branch_mispredict_penalty 20
rob_size 256
lq_size 72
sq_size 56
num_instr_destinations_sparc 4
num_instr_destinations 2
num_instr_sources 4

itlb_set 16
itlb_way 8
itlb_rq_size 16
itlb_wq_size 16
itlb_pq_size 0
itlb_mshr_size 8
itlb_latency 1

dtlb_set 16
dtlb_way 4
dtlb_rq_size 16
dtlb_wq_size 16
dtlb_pq_size 0
dtlb_mshr_size 8
dtlb_latency 1

stlb_set 128
stlb_way 12
stlb_rq_size 32
stlb_wq_size 32
stlb_pq_size 0
stlb_mshr_size 16
stlb_latency 8

l1i_size 32
l1i_set 64
l1i_way 8
l1i_rq_size 64
l1i_wq_size 64
l1i_pq_size 8
l1i_mshr_size 8
l1i_latency 1

l1d_size 32
l1d_set 64
l1d_way 8
l1d_rq_size 64
l1d_wq_size 64
l1d_pq_size 8
l1d_mshr_size 16
l1d_latency 4

l2c_size 512
l2c_set 1024
l2c_way 8
l2c_rq_size 32
l2c_wq_size 32
l2c_pq_size 16
l2c_mshr_size 32
l2c_latency 10

llc_size 2048
llc_set 2048
llc_way 16
llc_rq_size 32
llc_wq_size 32
llc_pq_size 32
llc_mshr_size 64
llc_latency 20

dram_channel_width 8
dram_wq_size 64
dram_rq_size 64
tRP 15
tRCD 15
tCAS 12.5
dram_dbus_turn_around_time 30
dram_write_high_wm 56
dram_write_low_wm 48
min_dram_writes_per_switch 16
dram_mtps 2400
dram_dbus_return_time 13


Heartbeat CPU  0 instructions:    1000002 cycles:     502293 heartbeat IPC: 1.99087 cumulative IPC: 1.99087 (Simulation time: 0 hr 0 min 2 sec) 
Heartbeat CPU  0 instructions:    2000001 cycles:     993763 heartbeat IPC: 2.03471 cumulative IPC: 2.01255 (Simulation time: 0 hr 0 min 3 sec) 
Heartbeat CPU  0 instructions:    3000001 cycles:    1490426 heartbeat IPC: 2.01344 cumulative IPC: 2.01285 (Simulation time: 0 hr 0 min 5 sec) 
Heartbeat CPU  0 instructions:    4000000 cycles:    1992144 heartbeat IPC: 1.99315 cumulative IPC: 2.00789 (Simulation time: 0 hr 0 min 6 sec) 
Heartbeat CPU  0 instructions:    5000000 cycles:    2494126 heartbeat IPC: 1.99210 cumulative IPC: 2.00471 (Simulation time: 0 hr 0 min 8 sec) 
Heartbeat CPU  0 instructions:    6000001 cycles:    2995954 heartbeat IPC: 1.99272 cumulative IPC: 2.00270 (Simulation time: 0 hr 0 min 9 sec) 
Heartbeat CPU  0 instructions:    7000000 cycles:    3482675 heartbeat IPC: 2.05456 cumulative IPC: 2.00995 (Simulation time: 0 hr 0 min 11 sec) 
Heartbeat CPU  0 instructions:    8000000 cycles:    3984386 heartbeat IPC: 1.99318 cumulative IPC: 2.00784 (Simulation time: 0 hr 0 min 12 sec) 
Heartbeat CPU  0 instructions:    9000001 cycles:    4485488 heartbeat IPC: 1.99560 cumulative IPC: 2.00647 (Simulation time: 0 hr 0 min 14 sec) 
Heartbeat CPU  0 instructions:   10000000 cycles:    4987430 heartbeat IPC: 1.99226 cumulative IPC: 2.00504 (Simulation time: 0 hr 0 min 15 sec) 
Heartbeat CPU  0 instructions:   11000001 cycles:    5481257 heartbeat IPC: 2.02500 cumulative IPC: 2.00684 (Simulation time: 0 hr 0 min 16 sec) 
Heartbeat CPU  0 instructions:   12000000 cycles:    5976048 heartbeat IPC: 2.02105 cumulative IPC: 2.00802 (Simulation time: 0 hr 0 min 18 sec) 
Heartbeat CPU  0 instructions:   13000003 cycles:    6477572 heartbeat IPC: 1.99393 cumulative IPC: 2.00693 (Simulation time: 0 hr 0 min 19 sec) 
Heartbeat CPU  0 instructions:   14000001 cycles:    6979086 heartbeat IPC: 1.99396 cumulative IPC: 2.00599 (Simulation time: 0 hr 0 min 21 sec) 
Heartbeat CPU  0 instructions:   15000003 cycles:    7480804 heartbeat IPC: 1.99316 cumulative IPC: 2.00513 (Simulation time: 0 hr 0 min 22 sec) 
Heartbeat CPU  0 instructions:   16000000 cycles:    7967860 heartbeat IPC: 2.05315 cumulative IPC: 2.00807 (Simulation time: 0 hr 0 min 24 sec) 
Heartbeat CPU  0 instructions:   17000001 cycles:    8469519 heartbeat IPC: 1.99339 cumulative IPC: 2.00720 (Simulation time: 0 hr 0 min 25 sec) 
Heartbeat CPU  0 instructions:   18000001 cycles:    8970835 heartbeat IPC: 1.99475 cumulative IPC: 2.00650 (Simulation time: 0 hr 0 min 27 sec) 
Heartbeat CPU  0 instructions:   19000003 cycles:    9471910 heartbeat IPC: 1.99571 cumulative IPC: 2.00593 (Simulation time: 0 hr 0 min 28 sec) 
Heartbeat CPU  0 instructions:   20000000 cycles:    9968630 heartbeat IPC: 2.01320 cumulative IPC: 2.00629 (Simulation time: 0 hr 0 min 30 sec) 
Heartbeat CPU  0 instructions:   21000001 cycles:   10460625 heartbeat IPC: 2.03254 cumulative IPC: 2.00753 (Simulation time: 0 hr 0 min 31 sec) 
Heartbeat CPU  0 instructions:   22000003 cycles:   10962614 heartbeat IPC: 1.99208 cumulative IPC: 2.00682 (Simulation time: 0 hr 0 min 32 sec) 
Heartbeat CPU  0 instructions:   23000001 cycles:   11464786 heartbeat IPC: 1.99135 cumulative IPC: 2.00614 (Simulation time: 0 hr 0 min 34 sec) 
Heartbeat CPU  0 instructions:   24000000 cycles:   11966171 heartbeat IPC: 1.99447 cumulative IPC: 2.00565 (Simulation time: 0 hr 0 min 35 sec) 
Heartbeat CPU  0 instructions:   25000003 cycles:   12452803 heartbeat IPC: 2.05495 cumulative IPC: 2.00758 (Simulation time: 0 hr 0 min 37 sec) 
Heartbeat CPU  0 instructions:   26000001 cycles:   12954699 heartbeat IPC: 1.99244 cumulative IPC: 2.00699 (Simulation time: 0 hr 0 min 38 sec) 
Heartbeat CPU  0 instructions:   27000003 cycles:   13456788 heartbeat IPC: 1.99168 cumulative IPC: 2.00642 (Simulation time: 0 hr 0 min 40 sec) 
Heartbeat CPU  0 instructions:   28000000 cycles:   13958637 heartbeat IPC: 1.99263 cumulative IPC: 2.00593 (Simulation time: 0 hr 0 min 41 sec) 
Heartbeat CPU  0 instructions:   29000002 cycles:   14456029 heartbeat IPC: 2.01049 cumulative IPC: 2.00608 (Simulation time: 0 hr 0 min 43 sec) 
Heartbeat CPU  0 instructions:   30000000 cycles:   14946537 heartbeat IPC: 2.03870 cumulative IPC: 2.00715 (Simulation time: 0 hr 0 min 44 sec) 
Heartbeat CPU  0 instructions:   31000002 cycles:   15448361 heartbeat IPC: 1.99273 cumulative IPC: 2.00669 (Simulation time: 0 hr 0 min 45 sec) 
Heartbeat CPU  0 instructions:   32000000 cycles:   15949807 heartbeat IPC: 1.99423 cumulative IPC: 2.00629 (Simulation time: 0 hr 0 min 47 sec) 
Heartbeat CPU  0 instructions:   33000001 cycles:   16451747 heartbeat IPC: 1.99227 cumulative IPC: 2.00587 (Simulation time: 0 hr 0 min 48 sec) 
Heartbeat CPU  0 instructions:   34000003 cycles:   16940198 heartbeat IPC: 2.04729 cumulative IPC: 2.00706 (Simulation time: 0 hr 0 min 50 sec) 
Heartbeat CPU  0 instructions:   35000000 cycles:   17439653 heartbeat IPC: 2.00218 cumulative IPC: 2.00692 (Simulation time: 0 hr 0 min 51 sec) 
Heartbeat CPU  0 instructions:   36000000 cycles:   17941084 heartbeat IPC: 1.99429 cumulative IPC: 2.00657 (Simulation time: 0 hr 0 min 53 sec) 
Heartbeat CPU  0 instructions:   37000003 cycles:   18442889 heartbeat IPC: 1.99281 cumulative IPC: 2.00619 (Simulation time: 0 hr 0 min 54 sec) 
Heartbeat CPU  0 instructions:   38000003 cycles:   18943623 heartbeat IPC: 1.99707 cumulative IPC: 2.00595 (Simulation time: 0 hr 0 min 56 sec) 
Heartbeat CPU  0 instructions:   39000003 cycles:   19430801 heartbeat IPC: 2.05264 cumulative IPC: 2.00712 (Simulation time: 0 hr 0 min 57 sec) 
Heartbeat CPU  0 instructions:   40000000 cycles:   19931973 heartbeat IPC: 1.99532 cumulative IPC: 2.00683 (Simulation time: 0 hr 0 min 59 sec) 
Heartbeat CPU  0 instructions:   41000001 cycles:   20433950 heartbeat IPC: 1.99213 cumulative IPC: 2.00646 (Simulation time: 0 hr 1 min 1 sec) 
Heartbeat CPU  0 instructions:   42000002 cycles:   20935957 heartbeat IPC: 1.99201 cumulative IPC: 2.00612 (Simulation time: 0 hr 1 min 2 sec) 
Heartbeat CPU  0 instructions:   43000003 cycles:   21427359 heartbeat IPC: 2.03500 cumulative IPC: 2.00678 (Simulation time: 0 hr 1 min 4 sec) 
Heartbeat CPU  0 instructions:   44000000 cycles:   21924153 heartbeat IPC: 2.01290 cumulative IPC: 2.00692 (Simulation time: 0 hr 1 min 5 sec) 
Heartbeat CPU  0 instructions:   45000001 cycles:   22426062 heartbeat IPC: 1.99240 cumulative IPC: 2.00659 (Simulation time: 0 hr 1 min 7 sec) 
Heartbeat CPU  0 instructions:   46000000 cycles:   22927662 heartbeat IPC: 1.99362 cumulative IPC: 2.00631 (Simulation time: 0 hr 1 min 8 sec) 
Heartbeat CPU  0 instructions:   47000002 cycles:   23429588 heartbeat IPC: 1.99233 cumulative IPC: 2.00601 (Simulation time: 0 hr 1 min 10 sec) 
Heartbeat CPU  0 instructions:   48000000 cycles:   23916126 heartbeat IPC: 2.05533 cumulative IPC: 2.00701 (Simulation time: 0 hr 1 min 11 sec) 
Heartbeat CPU  0 instructions:   49000002 cycles:   24417915 heartbeat IPC: 1.99287 cumulative IPC: 2.00672 (Simulation time: 0 hr 1 min 13 sec) 
Heartbeat CPU  0 instructions:   50000003 cycles:   24919150 heartbeat IPC: 1.99507 cumulative IPC: 2.00649 (Simulation time: 0 hr 1 min 14 sec) 
Heartbeat CPU  0 instructions:   51000003 cycles:   25420689 heartbeat IPC: 1.99386 cumulative IPC: 2.00624 (Simulation time: 0 hr 1 min 16 sec) 
Heartbeat CPU  0 instructions:   52000000 cycles:   25914220 heartbeat IPC: 2.02621 cumulative IPC: 2.00662 (Simulation time: 0 hr 1 min 17 sec) 
Heartbeat CPU  0 instructions:   53000001 cycles:   26409199 heartbeat IPC: 2.02029 cumulative IPC: 2.00688 (Simulation time: 0 hr 1 min 19 sec) 
Heartbeat CPU  0 instructions:   54000003 cycles:   26910771 heartbeat IPC: 1.99374 cumulative IPC: 2.00663 (Simulation time: 0 hr 1 min 20 sec) 
Heartbeat CPU  0 instructions:   55000000 cycles:   27412252 heartbeat IPC: 1.99409 cumulative IPC: 2.00640 (Simulation time: 0 hr 1 min 22 sec) 
Heartbeat CPU  0 instructions:   56000000 cycles:   27913670 heartbeat IPC: 1.99434 cumulative IPC: 2.00619 (Simulation time: 0 hr 1 min 24 sec) 
Heartbeat CPU  0 instructions:   57000002 cycles:   28400697 heartbeat IPC: 2.05328 cumulative IPC: 2.00699 (Simulation time: 0 hr 1 min 25 sec) 
Heartbeat CPU  0 instructions:   58000003 cycles:   28902334 heartbeat IPC: 1.99348 cumulative IPC: 2.00676 (Simulation time: 0 hr 1 min 27 sec) 
Heartbeat CPU  0 instructions:   59000001 cycles:   29404015 heartbeat IPC: 1.99329 cumulative IPC: 2.00653 (Simulation time: 0 hr 1 min 28 sec) 
Heartbeat CPU  0 instructions:   60000000 cycles:   29905040 heartbeat IPC: 1.99591 cumulative IPC: 2.00635 (Simulation time: 0 hr 1 min 30 sec) 
Heartbeat CPU  0 instructions:   61000000 cycles:   30400977 heartbeat IPC: 2.01639 cumulative IPC: 2.00651 (Simulation time: 0 hr 1 min 31 sec) 
Heartbeat CPU  0 instructions:   62000001 cycles:   30893415 heartbeat IPC: 2.03071 cumulative IPC: 2.00690 (Simulation time: 0 hr 1 min 33 sec) 
Heartbeat CPU  0 instructions:   63000001 cycles:   31395281 heartbeat IPC: 1.99256 cumulative IPC: 2.00667 (Simulation time: 0 hr 1 min 34 sec) 
Heartbeat CPU  0 instructions:   64000000 cycles:   31897481 heartbeat IPC: 1.99124 cumulative IPC: 2.00643 (Simulation time: 0 hr 1 min 36 sec) 
Heartbeat CPU  0 instructions:   65000000 cycles:   32398978 heartbeat IPC: 1.99403 cumulative IPC: 2.00624 (Simulation time: 0 hr 1 min 37 sec) 
Heartbeat CPU  0 instructions:   66000003 cycles:   32885192 heartbeat IPC: 2.05671 cumulative IPC: 2.00698 (Simulation time: 0 hr 1 min 38 sec) 
Heartbeat CPU  0 instructions:   67000000 cycles:   33387233 heartbeat IPC: 1.99186 cumulative IPC: 2.00676 (Simulation time: 0 hr 1 min 40 sec) 
Heartbeat CPU  0 instructions:   68000000 cycles:   33889114 heartbeat IPC: 1.99250 cumulative IPC: 2.00654 (Simulation time: 0 hr 1 min 41 sec) 
Heartbeat CPU  0 instructions:   69000001 cycles:   34391239 heartbeat IPC: 1.99154 cumulative IPC: 2.00633 (Simulation time: 0 hr 1 min 43 sec) 
Heartbeat CPU  0 instructions:   70000000 cycles:   34888374 heartbeat IPC: 2.01152 cumulative IPC: 2.00640 (Simulation time: 0 hr 1 min 44 sec) 
Heartbeat CPU  0 instructions:   71000001 cycles:   35378745 heartbeat IPC: 2.03927 cumulative IPC: 2.00685 (Simulation time: 0 hr 1 min 46 sec) 
Heartbeat CPU  0 instructions:   72000000 cycles:   35880990 heartbeat IPC: 1.99106 cumulative IPC: 2.00663 (Simulation time: 0 hr 1 min 47 sec) 
Heartbeat CPU  0 instructions:   73000002 cycles:   36382292 heartbeat IPC: 1.99481 cumulative IPC: 2.00647 (Simulation time: 0 hr 1 min 49 sec) 
Heartbeat CPU  0 instructions:   74000003 cycles:   36884112 heartbeat IPC: 1.99275 cumulative IPC: 2.00628 (Simulation time: 0 hr 1 min 50 sec) 
Heartbeat CPU  0 instructions:   75000001 cycles:   37372558 heartbeat IPC: 2.04731 cumulative IPC: 2.00682 (Simulation time: 0 hr 1 min 52 sec) 
Heartbeat CPU  0 instructions:   76000000 cycles:   37871928 heartbeat IPC: 2.00252 cumulative IPC: 2.00676 (Simulation time: 0 hr 1 min 53 sec) 
Heartbeat CPU  0 instructions:   77000000 cycles:   38373854 heartbeat IPC: 1.99233 cumulative IPC: 2.00657 (Simulation time: 0 hr 1 min 54 sec) 
Heartbeat CPU  0 instructions:   78000003 cycles:   38875396 heartbeat IPC: 1.99386 cumulative IPC: 2.00641 (Simulation time: 0 hr 1 min 56 sec) 
Heartbeat CPU  0 instructions:   79000001 cycles:   39375700 heartbeat IPC: 1.99878 cumulative IPC: 2.00631 (Simulation time: 0 hr 1 min 57 sec) 
Heartbeat CPU  0 instructions:   80000000 cycles:   39864211 heartbeat IPC: 2.04703 cumulative IPC: 2.00681 (Simulation time: 0 hr 1 min 59 sec) 
Heartbeat CPU  0 instructions:   81000003 cycles:   40365162 heartbeat IPC: 1.99621 cumulative IPC: 2.00668 (Simulation time: 0 hr 2 min 0 sec) 
Heartbeat CPU  0 instructions:   82000003 cycles:   40866810 heartbeat IPC: 1.99343 cumulative IPC: 2.00652 (Simulation time: 0 hr 2 min 2 sec) 
Heartbeat CPU  0 instructions:   83000001 cycles:   41368709 heartbeat IPC: 1.99243 cumulative IPC: 2.00635 (Simulation time: 0 hr 2 min 3 sec) 
Heartbeat CPU  0 instructions:   84000000 cycles:   41859930 heartbeat IPC: 2.03574 cumulative IPC: 2.00669 (Simulation time: 0 hr 2 min 5 sec) 
Heartbeat CPU  0 instructions:   85000002 cycles:   42357415 heartbeat IPC: 2.01011 cumulative IPC: 2.00673 (Simulation time: 0 hr 2 min 6 sec) 
Heartbeat CPU  0 instructions:   86000002 cycles:   42859277 heartbeat IPC: 1.99258 cumulative IPC: 2.00657 (Simulation time: 0 hr 2 min 8 sec) 
Heartbeat CPU  0 instructions:   87000002 cycles:   43360978 heartbeat IPC: 1.99322 cumulative IPC: 2.00641 (Simulation time: 0 hr 2 min 9 sec) 
Heartbeat CPU  0 instructions:   88000000 cycles:   43862935 heartbeat IPC: 1.99220 cumulative IPC: 2.00625 (Simulation time: 0 hr 2 min 11 sec) 
Heartbeat CPU  0 instructions:   89000003 cycles:   44349609 heartbeat IPC: 2.05477 cumulative IPC: 2.00678 (Simulation time: 0 hr 2 min 12 sec) 
Heartbeat CPU  0 instructions:   90000002 cycles:   44851750 heartbeat IPC: 1.99147 cumulative IPC: 2.00661 (Simulation time: 0 hr 2 min 13 sec) 
Heartbeat CPU  0 instructions:   91000000 cycles:   45353171 heartbeat IPC: 1.99433 cumulative IPC: 2.00647 (Simulation time: 0 hr 2 min 15 sec) 
Heartbeat CPU  0 instructions:   92000000 cycles:   45854926 heartbeat IPC: 1.99300 cumulative IPC: 2.00633 (Simulation time: 0 hr 2 min 16 sec) 
Heartbeat CPU  0 instructions:   93000002 cycles:   46347887 heartbeat IPC: 2.02856 cumulative IPC: 2.00656 (Simulation time: 0 hr 2 min 18 sec) 
Heartbeat CPU  0 instructions:   94000003 cycles:   46843651 heartbeat IPC: 2.01709 cumulative IPC: 2.00668 (Simulation time: 0 hr 2 min 19 sec) 
Heartbeat CPU  0 instructions:   95000003 cycles:   47345272 heartbeat IPC: 1.99354 cumulative IPC: 2.00654 (Simulation time: 0 hr 2 min 21 sec) 
Heartbeat CPU  0 instructions:   96000000 cycles:   47847001 heartbeat IPC: 1.99310 cumulative IPC: 2.00640 (Simulation time: 0 hr 2 min 22 sec) 
Heartbeat CPU  0 instructions:   97000000 cycles:   48348408 heartbeat IPC: 1.99439 cumulative IPC: 2.00627 (Simulation time: 0 hr 2 min 24 sec) 
Heartbeat CPU  0 instructions:   98000000 cycles:   48835096 heartbeat IPC: 2.05470 cumulative IPC: 2.00675 (Simulation time: 0 hr 2 min 25 sec) 
Heartbeat CPU  0 instructions:   99000002 cycles:   49336939 heartbeat IPC: 1.99266 cumulative IPC: 2.00661 (Simulation time: 0 hr 2 min 27 sec) 
Heartbeat CPU  0 instructions:  100000000 cycles:   49838628 heartbeat IPC: 1.99326 cumulative IPC: 2.00648 (Simulation time: 0 hr 2 min 28 sec) 

Warmup complete CPU  0 instructions:  100000003 cycles:   49838629 (Simulation time: 0 hr 2 min 28 sec) 

Heartbeat CPU  0 instructions:  101000001 cycles:   50700862 heartbeat IPC: 1.15978 cumulative IPC: 1.15978 (Simulation time: 0 hr 2 min 30 sec) 
Heartbeat CPU  0 instructions:  102000002 cycles:   51574774 heartbeat IPC: 1.14428 cumulative IPC: 1.15198 (Simulation time: 0 hr 2 min 32 sec) 
Heartbeat CPU  0 instructions:  103000002 cycles:   52459944 heartbeat IPC: 1.12973 cumulative IPC: 1.14446 (Simulation time: 0 hr 2 min 34 sec) 
Heartbeat CPU  0 instructions:  104000000 cycles:   53349317 heartbeat IPC: 1.12439 cumulative IPC: 1.13938 (Simulation time: 0 hr 2 min 35 sec) 
Heartbeat CPU  0 instructions:  105000000 cycles:   54204538 heartbeat IPC: 1.16929 cumulative IPC: 1.14524 (Simulation time: 0 hr 2 min 37 sec) 
Heartbeat CPU  0 instructions:  106000001 cycles:   55064410 heartbeat IPC: 1.16296 cumulative IPC: 1.14815 (Simulation time: 0 hr 2 min 39 sec) 
Heartbeat CPU  0 instructions:  107000002 cycles:   55945036 heartbeat IPC: 1.13556 cumulative IPC: 1.14634 (Simulation time: 0 hr 2 min 40 sec) 
Heartbeat CPU  0 instructions:  108000000 cycles:   56824974 heartbeat IPC: 1.13644 cumulative IPC: 1.14509 (Simulation time: 0 hr 2 min 42 sec) 
Heartbeat CPU  0 instructions:  109000003 cycles:   57714116 heartbeat IPC: 1.12468 cumulative IPC: 1.14279 (Simulation time: 0 hr 2 min 44 sec) 
Heartbeat CPU  0 instructions:  110000001 cycles:   58577496 heartbeat IPC: 1.15824 cumulative IPC: 1.14431 (Simulation time: 0 hr 2 min 45 sec) 
Heartbeat CPU  0 instructions:  111000003 cycles:   59428107 heartbeat IPC: 1.17563 cumulative IPC: 1.14709 (Simulation time: 0 hr 2 min 47 sec) 
Heartbeat CPU  0 instructions:  112000000 cycles:   60308566 heartbeat IPC: 1.13577 cumulative IPC: 1.14614 (Simulation time: 0 hr 2 min 49 sec) 
Heartbeat CPU  0 instructions:  113000001 cycles:   61184859 heartbeat IPC: 1.14117 cumulative IPC: 1.14575 (Simulation time: 0 hr 2 min 50 sec) 
Heartbeat CPU  0 instructions:  114000002 cycles:   62070061 heartbeat IPC: 1.12969 cumulative IPC: 1.14459 (Simulation time: 0 hr 2 min 52 sec) 
Heartbeat CPU  0 instructions:  115000000 cycles:   62941212 heartbeat IPC: 1.14790 cumulative IPC: 1.14481 (Simulation time: 0 hr 2 min 54 sec) 
Heartbeat CPU  0 instructions:  116000000 cycles:   63798620 heartbeat IPC: 1.16631 cumulative IPC: 1.14613 (Simulation time: 0 hr 2 min 55 sec) 
Heartbeat CPU  0 instructions:  117000002 cycles:   64671907 heartbeat IPC: 1.14510 cumulative IPC: 1.14607 (Simulation time: 0 hr 2 min 57 sec) 
Heartbeat CPU  0 instructions:  118000001 cycles:   65544905 heartbeat IPC: 1.14548 cumulative IPC: 1.14604 (Simulation time: 0 hr 2 min 59 sec) 
Heartbeat CPU  0 instructions:  119000002 cycles:   66430459 heartbeat IPC: 1.12924 cumulative IPC: 1.14514 (Simulation time: 0 hr 3 min 0 sec) 
Heartbeat CPU  0 instructions:  120000000 cycles:   67314626 heartbeat IPC: 1.13101 cumulative IPC: 1.14443 (Simulation time: 0 hr 3 min 2 sec) 
Heartbeat CPU  0 instructions:  121000001 cycles:   68171125 heartbeat IPC: 1.16754 cumulative IPC: 1.14551 (Simulation time: 0 hr 3 min 4 sec) 
Heartbeat CPU  0 instructions:  122000002 cycles:   69041368 heartbeat IPC: 1.14911 cumulative IPC: 1.14567 (Simulation time: 0 hr 3 min 5 sec) 
Heartbeat CPU  0 instructions:  123000001 cycles:   69911015 heartbeat IPC: 1.14989 cumulative IPC: 1.14585 (Simulation time: 0 hr 3 min 7 sec) 
Heartbeat CPU  0 instructions:  124000000 cycles:   70799621 heartbeat IPC: 1.12536 cumulative IPC: 1.14498 (Simulation time: 0 hr 3 min 8 sec) 
Heartbeat CPU  0 instructions:  125000000 cycles:   71694324 heartbeat IPC: 1.11769 cumulative IPC: 1.14387 (Simulation time: 0 hr 3 min 10 sec) 
Heartbeat CPU  0 instructions:  126000000 cycles:   72539650 heartbeat IPC: 1.18298 cumulative IPC: 1.14532 (Simulation time: 0 hr 3 min 12 sec) 
Heartbeat CPU  0 instructions:  127000000 cycles:   73405169 heartbeat IPC: 1.15538 cumulative IPC: 1.14569 (Simulation time: 0 hr 3 min 13 sec) 
Heartbeat CPU  0 instructions:  128000000 cycles:   74272975 heartbeat IPC: 1.15233 cumulative IPC: 1.14593 (Simulation time: 0 hr 3 min 15 sec) 
Heartbeat CPU  0 instructions:  129000002 cycles:   75153995 heartbeat IPC: 1.13505 cumulative IPC: 1.14555 (Simulation time: 0 hr 3 min 16 sec) 
Heartbeat CPU  0 instructions:  130000002 cycles:   76055175 heartbeat IPC: 1.10966 cumulative IPC: 1.14432 (Simulation time: 0 hr 3 min 18 sec) 
Heartbeat CPU  0 instructions:  131000002 cycles:   76909531 heartbeat IPC: 1.17047 cumulative IPC: 1.14514 (Simulation time: 0 hr 3 min 20 sec) 
Heartbeat CPU  0 instructions:  132000000 cycles:   77769153 heartbeat IPC: 1.16330 cumulative IPC: 1.14570 (Simulation time: 0 hr 3 min 21 sec) 
Heartbeat CPU  0 instructions:  133000000 cycles:   78640386 heartbeat IPC: 1.14780 cumulative IPC: 1.14576 (Simulation time: 0 hr 3 min 23 sec) 
Heartbeat CPU  0 instructions:  134000000 cycles:   79521289 heartbeat IPC: 1.13520 cumulative IPC: 1.14545 (Simulation time: 0 hr 3 min 25 sec) 
Heartbeat CPU  0 instructions:  135000002 cycles:   80420965 heartbeat IPC: 1.11151 cumulative IPC: 1.14445 (Simulation time: 0 hr 3 min 26 sec) 
Heartbeat CPU  0 instructions:  136000000 cycles:   81281509 heartbeat IPC: 1.16205 cumulative IPC: 1.14493 (Simulation time: 0 hr 3 min 28 sec) 
Heartbeat CPU  0 instructions:  137000001 cycles:   82136666 heartbeat IPC: 1.16938 cumulative IPC: 1.14558 (Simulation time: 0 hr 3 min 29 sec) 
Heartbeat CPU  0 instructions:  138000003 cycles:   83010495 heartbeat IPC: 1.14439 cumulative IPC: 1.14555 (Simulation time: 0 hr 3 min 31 sec) 
Heartbeat CPU  0 instructions:  139000003 cycles:   83885665 heartbeat IPC: 1.14264 cumulative IPC: 1.14547 (Simulation time: 0 hr 3 min 33 sec) 
Heartbeat CPU  0 instructions:  140000000 cycles:   84782712 heartbeat IPC: 1.11477 cumulative IPC: 1.14469 (Simulation time: 0 hr 3 min 34 sec) 
Heartbeat CPU  0 instructions:  141000003 cycles:   85649981 heartbeat IPC: 1.15305 cumulative IPC: 1.14489 (Simulation time: 0 hr 3 min 36 sec) 
Heartbeat CPU  0 instructions:  142000000 cycles:   86498989 heartbeat IPC: 1.17784 cumulative IPC: 1.14565 (Simulation time: 0 hr 3 min 38 sec) 
Heartbeat CPU  0 instructions:  143000001 cycles:   87364942 heartbeat IPC: 1.15480 cumulative IPC: 1.14586 (Simulation time: 0 hr 3 min 39 sec) 
Heartbeat CPU  0 instructions:  144000000 cycles:   88244005 heartbeat IPC: 1.13757 cumulative IPC: 1.14567 (Simulation time: 0 hr 3 min 41 sec) 
Heartbeat CPU  0 instructions:  145000002 cycles:   89140424 heartbeat IPC: 1.11555 cumulative IPC: 1.14499 (Simulation time: 0 hr 3 min 43 sec) 
Heartbeat CPU  0 instructions:  146000002 cycles:   90017497 heartbeat IPC: 1.14016 cumulative IPC: 1.14488 (Simulation time: 0 hr 3 min 44 sec) 
Heartbeat CPU  0 instructions:  147000002 cycles:   90921908 heartbeat IPC: 1.10569 cumulative IPC: 1.14402 (Simulation time: 0 hr 3 min 46 sec) 
Heartbeat CPU  0 instructions:  148000000 cycles:   92112067 heartbeat IPC: 0.84022 cumulative IPC: 1.13546 (Simulation time: 0 hr 3 min 48 sec) 
Heartbeat CPU  0 instructions:  149000002 cycles:   93305420 heartbeat IPC: 0.83798 cumulative IPC: 1.12730 (Simulation time: 0 hr 3 min 50 sec) 
Heartbeat CPU  0 instructions:  150000002 cycles:   94493986 heartbeat IPC: 0.84135 cumulative IPC: 1.11969 (Simulation time: 0 hr 3 min 52 sec) 
Heartbeat CPU  0 instructions:  151000000 cycles:   95688461 heartbeat IPC: 0.83719 cumulative IPC: 1.11233 (Simulation time: 0 hr 3 min 53 sec) 
Heartbeat CPU  0 instructions:  152000000 cycles:   96880653 heartbeat IPC: 0.83879 cumulative IPC: 1.10539 (Simulation time: 0 hr 3 min 55 sec) 
Heartbeat CPU  0 instructions:  153000003 cycles:   98072408 heartbeat IPC: 0.83910 cumulative IPC: 1.09881 (Simulation time: 0 hr 3 min 57 sec) 
Heartbeat CPU  0 instructions:  154000002 cycles:   99268976 heartbeat IPC: 0.83572 cumulative IPC: 1.09245 (Simulation time: 0 hr 3 min 59 sec) 
Heartbeat CPU  0 instructions:  155000003 cycles:  100462876 heartbeat IPC: 0.83759 cumulative IPC: 1.08644 (Simulation time: 0 hr 4 min 1 sec) 
Heartbeat CPU  0 instructions:  156000000 cycles:  101656120 heartbeat IPC: 0.83805 cumulative IPC: 1.08072 (Simulation time: 0 hr 4 min 3 sec) 
Heartbeat CPU  0 instructions:  157000003 cycles:  102854999 heartbeat IPC: 0.83412 cumulative IPC: 1.07514 (Simulation time: 0 hr 4 min 5 sec) 
Heartbeat CPU  0 instructions:  158000003 cycles:  104050707 heartbeat IPC: 0.83632 cumulative IPC: 1.06987 (Simulation time: 0 hr 4 min 6 sec) 
Heartbeat CPU  0 instructions:  159000003 cycles:  105245817 heartbeat IPC: 0.83674 cumulative IPC: 1.06484 (Simulation time: 0 hr 4 min 8 sec) 
Heartbeat CPU  0 instructions:  160000000 cycles:  106449765 heartbeat IPC: 0.83060 cumulative IPC: 1.05986 (Simulation time: 0 hr 4 min 10 sec) 
Heartbeat CPU  0 instructions:  161000000 cycles:  107640510 heartbeat IPC: 0.83981 cumulative IPC: 1.05533 (Simulation time: 0 hr 4 min 12 sec) 
Heartbeat CPU  0 instructions:  162000000 cycles:  108841894 heartbeat IPC: 0.83237 cumulative IPC: 1.05079 (Simulation time: 0 hr 4 min 14 sec) 
Heartbeat CPU  0 instructions:  163000002 cycles:  110045250 heartbeat IPC: 0.83101 cumulative IPC: 1.04640 (Simulation time: 0 hr 4 min 16 sec) 
Heartbeat CPU  0 instructions:  164000000 cycles:  111238553 heartbeat IPC: 0.83801 cumulative IPC: 1.04235 (Simulation time: 0 hr 4 min 17 sec) 
Heartbeat CPU  0 instructions:  165000001 cycles:  112445890 heartbeat IPC: 0.82827 cumulative IPC: 1.03822 (Simulation time: 0 hr 4 min 19 sec) 
Heartbeat CPU  0 instructions:  166000001 cycles:  113638792 heartbeat IPC: 0.83829 cumulative IPC: 1.03448 (Simulation time: 0 hr 4 min 21 sec) 
Heartbeat CPU  0 instructions:  167000001 cycles:  114836188 heartbeat IPC: 0.83515 cumulative IPC: 1.03081 (Simulation time: 0 hr 4 min 23 sec) 
Heartbeat CPU  0 instructions:  168000000 cycles:  116032913 heartbeat IPC: 0.83561 cumulative IPC: 1.02728 (Simulation time: 0 hr 4 min 25 sec) 
Heartbeat CPU  0 instructions:  169000002 cycles:  117229736 heartbeat IPC: 0.83555 cumulative IPC: 1.02387 (Simulation time: 0 hr 4 min 27 sec) 
Heartbeat CPU  0 instructions:  170000002 cycles:  118419628 heartbeat IPC: 0.84041 cumulative IPC: 1.02069 (Simulation time: 0 hr 4 min 29 sec) 
Heartbeat CPU  0 instructions:  171000002 cycles:  119608533 heartbeat IPC: 0.84111 cumulative IPC: 1.01763 (Simulation time: 0 hr 4 min 30 sec) 
Heartbeat CPU  0 instructions:  172000000 cycles:  120809422 heartbeat IPC: 0.83271 cumulative IPC: 1.01450 (Simulation time: 0 hr 4 min 32 sec) 
Heartbeat CPU  0 instructions:  173000002 cycles:  122005806 heartbeat IPC: 0.83585 cumulative IPC: 1.01154 (Simulation time: 0 hr 4 min 34 sec) 
Heartbeat CPU  0 instructions:  174000002 cycles:  123213883 heartbeat IPC: 0.82776 cumulative IPC: 1.00851 (Simulation time: 0 hr 4 min 36 sec) 
Heartbeat CPU  0 instructions:  175000002 cycles:  124418572 heartbeat IPC: 0.83009 cumulative IPC: 1.00563 (Simulation time: 0 hr 4 min 37 sec) 
Heartbeat CPU  0 instructions:  176000000 cycles:  125614854 heartbeat IPC: 0.83592 cumulative IPC: 1.00295 (Simulation time: 0 hr 4 min 39 sec) 
Heartbeat CPU  0 instructions:  177000003 cycles:  126811331 heartbeat IPC: 0.83579 cumulative IPC: 1.00035 (Simulation time: 0 hr 4 min 41 sec) 
Heartbeat CPU  0 instructions:  178000000 cycles:  128011151 heartbeat IPC: 0.83346 cumulative IPC: 0.99779 (Simulation time: 0 hr 4 min 43 sec) 
Heartbeat CPU  0 instructions:  179000002 cycles:  129212980 heartbeat IPC: 0.83207 cumulative IPC: 0.99528 (Simulation time: 0 hr 4 min 45 sec) 
Heartbeat CPU  0 instructions:  180000000 cycles:  130414492 heartbeat IPC: 0.83228 cumulative IPC: 0.99285 (Simulation time: 0 hr 4 min 46 sec) 
Heartbeat CPU  0 instructions:  181000003 cycles:  131615850 heartbeat IPC: 0.83239 cumulative IPC: 0.99050 (Simulation time: 0 hr 4 min 48 sec) 
Heartbeat CPU  0 instructions:  182000002 cycles:  132811651 heartbeat IPC: 0.83626 cumulative IPC: 0.98827 (Simulation time: 0 hr 4 min 50 sec) 
Heartbeat CPU  0 instructions:  183000000 cycles:  134009521 heartbeat IPC: 0.83481 cumulative IPC: 0.98609 (Simulation time: 0 hr 4 min 52 sec) 
Heartbeat CPU  0 instructions:  184000000 cycles:  135204527 heartbeat IPC: 0.83682 cumulative IPC: 0.98400 (Simulation time: 0 hr 4 min 53 sec) 
Heartbeat CPU  0 instructions:  185000003 cycles:  136390911 heartbeat IPC: 0.84290 cumulative IPC: 0.98207 (Simulation time: 0 hr 4 min 55 sec) 
Heartbeat CPU  0 instructions:  186000001 cycles:  137596881 heartbeat IPC: 0.82921 cumulative IPC: 0.97996 (Simulation time: 0 hr 4 min 57 sec) 
Heartbeat CPU  0 instructions:  187000002 cycles:  138793826 heartbeat IPC: 0.83546 cumulative IPC: 0.97802 (Simulation time: 0 hr 4 min 59 sec) 
Heartbeat CPU  0 instructions:  188000000 cycles:  139993111 heartbeat IPC: 0.83383 cumulative IPC: 0.97610 (Simulation time: 0 hr 5 min 1 sec) 
Heartbeat CPU  0 instructions:  189000001 cycles:  141197274 heartbeat IPC: 0.83045 cumulative IPC: 0.97418 (Simulation time: 0 hr 5 min 2 sec) 
Heartbeat CPU  0 instructions:  190000003 cycles:  142394237 heartbeat IPC: 0.83545 cumulative IPC: 0.97239 (Simulation time: 0 hr 5 min 4 sec) 
Heartbeat CPU  0 instructions:  191000002 cycles:  143593157 heartbeat IPC: 0.83408 cumulative IPC: 0.97062 (Simulation time: 0 hr 5 min 6 sec) 
Heartbeat CPU  0 instructions:  192000000 cycles:  144799209 heartbeat IPC: 0.82915 cumulative IPC: 0.96882 (Simulation time: 0 hr 5 min 8 sec) 
Heartbeat CPU  0 instructions:  193000003 cycles:  145970728 heartbeat IPC: 0.85360 cumulative IPC: 0.96742 (Simulation time: 0 hr 5 min 10 sec) 
Heartbeat CPU  0 instructions:  194000001 cycles:  150029308 heartbeat IPC: 0.24639 cumulative IPC: 0.93821 (Simulation time: 0 hr 5 min 13 sec) 
Heartbeat CPU  0 instructions:  195000000 cycles:  153055142 heartbeat IPC: 0.33049 cumulative IPC: 0.92040 (Simulation time: 0 hr 5 min 15 sec) 
Heartbeat CPU  0 instructions:  196000000 cycles:  153808083 heartbeat IPC: 1.32813 cumulative IPC: 0.92335 (Simulation time: 0 hr 5 min 17 sec) 
Heartbeat CPU  0 instructions:  197000000 cycles:  154563626 heartbeat IPC: 1.32355 cumulative IPC: 0.92624 (Simulation time: 0 hr 5 min 19 sec) 
Heartbeat CPU  0 instructions:  198000003 cycles:  155314563 heartbeat IPC: 1.33167 cumulative IPC: 0.92912 (Simulation time: 0 hr 5 min 20 sec) 
Heartbeat CPU  0 instructions:  199000002 cycles:  156072912 heartbeat IPC: 1.31865 cumulative IPC: 0.93190 (Simulation time: 0 hr 5 min 22 sec) 
Heartbeat CPU  0 instructions:  200000000 cycles:  156823782 heartbeat IPC: 1.33179 cumulative IPC: 0.93471 (Simulation time: 0 hr 5 min 24 sec) 
Finished CPU 0 instructions: 100000000 cycles: 106985182 cumulative IPC: 0.93471 (Simulation time: 0 hr 5 min 24 sec) 

ChampSim completed all CPUs

[ROI Statistics]
Core_0_instructions 100000000
Core_0_cycles 106985182
Core_0_IPC 0.93471

Core_0_branch_prediction_accuracy 99.15344
Core_0_branch_MPKI 0.35029
Core_0_average_ROB_occupancy_at_mispredict 249.76437

Core_0_L1D_total_access 27535122
Core_0_L1D_total_hit 26093334
Core_0_L1D_total_miss 1441788
Core_0_L1D_loads 23065480
Core_0_L1D_load_hit 21960682
Core_0_L1D_load_miss 1104798
Core_0_L1D_RFOs 4469642
Core_0_L1D_RFO_hit 4132652
Core_0_L1D_RFO_miss 336990
Core_0_L1D_prefetches 0
Core_0_L1D_prefetch_hit 0
Core_0_L1D_prefetch_miss 0
Core_0_L1D_writebacks 0
Core_0_L1D_writeback_hit 0
Core_0_L1D_writeback_miss 0
Core_0_L1D_prefetch_requested 0
Core_0_L1D_prefetch_issued 0
Core_0_L1D_prefetch_useful 0
Core_0_L1D_prefetch_useless 0
Core_0_L1D_prefetch_late 0
Core_0_L1D_average_miss_latency 73.01027

Core_0_L1I_total_access 22680180
Core_0_L1I_total_hit 22679960
Core_0_L1I_total_miss 220
Core_0_L1I_loads 22680180
Core_0_L1I_load_hit 22679960
Core_0_L1I_load_miss 220
Core_0_L1I_RFOs 0
Core_0_L1I_RFO_hit 0
Core_0_L1I_RFO_miss 0
Core_0_L1I_prefetches 0
Core_0_L1I_prefetch_hit 0
Core_0_L1I_prefetch_miss 0
Core_0_L1I_writebacks 0
Core_0_L1I_writeback_hit 0
Core_0_L1I_writeback_miss 0
Core_0_L1I_prefetch_requested 0
Core_0_L1I_prefetch_issued 0
Core_0_L1I_prefetch_useful 0
Core_0_L1I_prefetch_useless 0
Core_0_L1I_prefetch_late 0
Core_0_L1I_average_miss_latency 240.02273

Core_0_L2C_total_access 4019549
Core_0_L2C_total_hit 2970085
Core_0_L2C_total_miss 1049464
Core_0_L2C_loads 1105013
Core_0_L2C_load_hit 897894
Core_0_L2C_load_miss 207119
Core_0_L2C_RFOs 336936
Core_0_L2C_RFO_hit 119141
Core_0_L2C_RFO_miss 217795
Core_0_L2C_prefetches 2024472
Core_0_L2C_prefetch_hit 1400208
Core_0_L2C_prefetch_miss 624264
Core_0_L2C_writebacks 553128
Core_0_L2C_writeback_hit 552842
Core_0_L2C_writeback_miss 286
Core_0_L2C_prefetch_requested 5126593
Core_0_L2C_prefetch_issued 5117298
Core_0_L2C_prefetch_useful 1015853
Core_0_L2C_prefetch_useless 86706
Core_0_L2C_prefetch_late 85734
Core_0_L2C_average_miss_latency 218.82570

Core_0_LLC_total_access 1461515
Core_0_LLC_total_hit 531527
Core_0_LLC_total_miss 929988
Core_0_LLC_loads 121385
Core_0_LLC_load_hit 46530
Core_0_LLC_load_miss 74855
Core_0_LLC_RFOs 217795
Core_0_LLC_RFO_hit 14745
Core_0_LLC_RFO_miss 203050
Core_0_LLC_prefetches 712737
Core_0_LLC_prefetch_hit 67135
Core_0_LLC_prefetch_miss 645602
Core_0_LLC_writebacks 409598
Core_0_LLC_writeback_hit 403117
Core_0_LLC_writeback_miss 6481
Core_0_LLC_prefetch_requested 0
Core_0_LLC_prefetch_issued 0
Core_0_LLC_prefetch_useful 90410
Core_0_LLC_prefetch_useless 885447
Core_0_LLC_prefetch_late 2
Core_0_LLC_average_miss_latency 237.00286

Core_0_major_page_fault 0
Core_0_minor_page_fault 15627

CPU 0 L2C PC-based stride prefetcher final stats
Channel_0_RQ_row_buffer_hit 299019
Channel_0_RQ_row_buffer_miss 624454
Channel_0_WQ_row_buffer_hit 68433
Channel_0_WQ_row_buffer_miss 308333
Channel_0_WQ_full 0
Channel_0_dbus_congested 359620

avg_congested_cycle 9
