*************************************************
   ChampSim Multicore Out-of-Order Simulator
   Last compiled: Dec 23 2023 16:08:21
*************************************************

trace_0 ./test_trace/437.leslie3d-134B.champsimtrace.xz
CPU 0 L1D next line prefetcher
CPU 0 L2C next line prefetcher
Initialize SHIP state
warmup_instructions 100000000
simulation_instructions 100000000
champsim_seed 218

num_cpus 1
cpu_freq 4000
dram_io_freq 2400
page_size 4096
block_size 64
max_read_per_cycle 8
max_fill_per_cycle 1
dram_channels 1
dram_ranks 1
dram_banks 8
dram_rows 65536
dram_columns 128
dram_row_size 8
dram_size 4096
dram_pages 1048576

fetch_width 6
decode_width 6
exec_width 4
lq_width 2
sq_width 2
retire_width 4
scheduler_size 128
branch_mispredict_penalty 20
rob_size 256
lq_size 72
sq_size 56
num_instr_destinations_sparc 4
num_instr_destinations 2
num_instr_sources 4

itlb_set 16
itlb_way 8
itlb_rq_size 16
itlb_wq_size 16
itlb_pq_size 0
itlb_mshr_size 8
itlb_latency 1

dtlb_set 16
dtlb_way 4
dtlb_rq_size 16
dtlb_wq_size 16
dtlb_pq_size 0
dtlb_mshr_size 8
dtlb_latency 1

stlb_set 128
stlb_way 12
stlb_rq_size 32
stlb_wq_size 32
stlb_pq_size 0
stlb_mshr_size 16
stlb_latency 8

l1i_size 32
l1i_set 64
l1i_way 8
l1i_rq_size 64
l1i_wq_size 64
l1i_pq_size 8
l1i_mshr_size 8
l1i_latency 1

l1d_size 32
l1d_set 64
l1d_way 8
l1d_rq_size 64
l1d_wq_size 64
l1d_pq_size 8
l1d_mshr_size 16
l1d_latency 4

l2c_size 512
l2c_set 1024
l2c_way 8
l2c_rq_size 32
l2c_wq_size 32
l2c_pq_size 16
l2c_mshr_size 32
l2c_latency 10

llc_size 2048
llc_set 2048
llc_way 16
llc_rq_size 32
llc_wq_size 32
llc_pq_size 32
llc_mshr_size 64
llc_latency 20

dram_channel_width 8
dram_wq_size 64
dram_rq_size 64
tRP 15
tRCD 15
tCAS 12.5
dram_dbus_turn_around_time 30
dram_write_high_wm 56
dram_write_low_wm 48
min_dram_writes_per_switch 16
dram_mtps 2400
dram_dbus_return_time 13


Heartbeat CPU  0 instructions:    1000002 cycles:     502361 heartbeat IPC: 1.99060 cumulative IPC: 1.99060 (Simulation time: 0 hr 0 min 1 sec) 
Heartbeat CPU  0 instructions:    2000001 cycles:     993971 heartbeat IPC: 2.03413 cumulative IPC: 2.01213 (Simulation time: 0 hr 0 min 3 sec) 
Heartbeat CPU  0 instructions:    3000001 cycles:    1490677 heartbeat IPC: 2.01326 cumulative IPC: 2.01251 (Simulation time: 0 hr 0 min 4 sec) 
Heartbeat CPU  0 instructions:    4000000 cycles:    1992297 heartbeat IPC: 1.99354 cumulative IPC: 2.00773 (Simulation time: 0 hr 0 min 6 sec) 
Heartbeat CPU  0 instructions:    5000000 cycles:    2494146 heartbeat IPC: 1.99263 cumulative IPC: 2.00469 (Simulation time: 0 hr 0 min 7 sec) 
Heartbeat CPU  0 instructions:    6000001 cycles:    2995923 heartbeat IPC: 1.99292 cumulative IPC: 2.00272 (Simulation time: 0 hr 0 min 8 sec) 
Heartbeat CPU  0 instructions:    7000000 cycles:    3482760 heartbeat IPC: 2.05407 cumulative IPC: 2.00990 (Simulation time: 0 hr 0 min 10 sec) 
Heartbeat CPU  0 instructions:    8000000 cycles:    3984508 heartbeat IPC: 1.99303 cumulative IPC: 2.00778 (Simulation time: 0 hr 0 min 11 sec) 
Heartbeat CPU  0 instructions:    9000001 cycles:    4485488 heartbeat IPC: 1.99609 cumulative IPC: 2.00647 (Simulation time: 0 hr 0 min 13 sec) 
Heartbeat CPU  0 instructions:   10000000 cycles:    4987185 heartbeat IPC: 1.99323 cumulative IPC: 2.00514 (Simulation time: 0 hr 0 min 14 sec) 
Heartbeat CPU  0 instructions:   11000001 cycles:    5481082 heartbeat IPC: 2.02472 cumulative IPC: 2.00690 (Simulation time: 0 hr 0 min 15 sec) 
Heartbeat CPU  0 instructions:   12000000 cycles:    5975857 heartbeat IPC: 2.02112 cumulative IPC: 2.00808 (Simulation time: 0 hr 0 min 17 sec) 
Heartbeat CPU  0 instructions:   13000003 cycles:    6477518 heartbeat IPC: 1.99338 cumulative IPC: 2.00694 (Simulation time: 0 hr 0 min 18 sec) 
Heartbeat CPU  0 instructions:   14000001 cycles:    6978921 heartbeat IPC: 1.99440 cumulative IPC: 2.00604 (Simulation time: 0 hr 0 min 20 sec) 
Heartbeat CPU  0 instructions:   15000003 cycles:    7480288 heartbeat IPC: 1.99455 cumulative IPC: 2.00527 (Simulation time: 0 hr 0 min 21 sec) 
Heartbeat CPU  0 instructions:   16000000 cycles:    7967471 heartbeat IPC: 2.05261 cumulative IPC: 2.00817 (Simulation time: 0 hr 0 min 22 sec) 
Heartbeat CPU  0 instructions:   17000001 cycles:    8469227 heartbeat IPC: 1.99300 cumulative IPC: 2.00727 (Simulation time: 0 hr 0 min 24 sec) 
Heartbeat CPU  0 instructions:   18000001 cycles:    8970577 heartbeat IPC: 1.99461 cumulative IPC: 2.00656 (Simulation time: 0 hr 0 min 25 sec) 
Heartbeat CPU  0 instructions:   19000003 cycles:    9471772 heartbeat IPC: 1.99524 cumulative IPC: 2.00596 (Simulation time: 0 hr 0 min 27 sec) 
Heartbeat CPU  0 instructions:   20000000 cycles:    9968338 heartbeat IPC: 2.01382 cumulative IPC: 2.00635 (Simulation time: 0 hr 0 min 28 sec) 
Heartbeat CPU  0 instructions:   21000001 cycles:   10460372 heartbeat IPC: 2.03238 cumulative IPC: 2.00758 (Simulation time: 0 hr 0 min 30 sec) 
Heartbeat CPU  0 instructions:   22000003 cycles:   10962208 heartbeat IPC: 1.99269 cumulative IPC: 2.00690 (Simulation time: 0 hr 0 min 31 sec) 
Heartbeat CPU  0 instructions:   23000001 cycles:   11464355 heartbeat IPC: 1.99144 cumulative IPC: 2.00622 (Simulation time: 0 hr 0 min 33 sec) 
Heartbeat CPU  0 instructions:   24000000 cycles:   11965880 heartbeat IPC: 1.99392 cumulative IPC: 2.00570 (Simulation time: 0 hr 0 min 34 sec) 
Heartbeat CPU  0 instructions:   25000003 cycles:   12452401 heartbeat IPC: 2.05542 cumulative IPC: 2.00765 (Simulation time: 0 hr 0 min 36 sec) 
Heartbeat CPU  0 instructions:   26000001 cycles:   12954234 heartbeat IPC: 1.99269 cumulative IPC: 2.00707 (Simulation time: 0 hr 0 min 37 sec) 
Heartbeat CPU  0 instructions:   27000003 cycles:   13456252 heartbeat IPC: 1.99196 cumulative IPC: 2.00650 (Simulation time: 0 hr 0 min 38 sec) 
Heartbeat CPU  0 instructions:   28000000 cycles:   13958127 heartbeat IPC: 1.99252 cumulative IPC: 2.00600 (Simulation time: 0 hr 0 min 40 sec) 
Heartbeat CPU  0 instructions:   29000002 cycles:   14455775 heartbeat IPC: 2.00946 cumulative IPC: 2.00612 (Simulation time: 0 hr 0 min 41 sec) 
Heartbeat CPU  0 instructions:   30000000 cycles:   14946146 heartbeat IPC: 2.03927 cumulative IPC: 2.00721 (Simulation time: 0 hr 0 min 43 sec) 
Heartbeat CPU  0 instructions:   31000002 cycles:   15447705 heartbeat IPC: 1.99379 cumulative IPC: 2.00677 (Simulation time: 0 hr 0 min 44 sec) 
Heartbeat CPU  0 instructions:   32000000 cycles:   15949185 heartbeat IPC: 1.99409 cumulative IPC: 2.00637 (Simulation time: 0 hr 0 min 45 sec) 
Heartbeat CPU  0 instructions:   33000001 cycles:   16451200 heartbeat IPC: 1.99197 cumulative IPC: 2.00593 (Simulation time: 0 hr 0 min 47 sec) 
Heartbeat CPU  0 instructions:   34000003 cycles:   16939982 heartbeat IPC: 2.04591 cumulative IPC: 2.00709 (Simulation time: 0 hr 0 min 48 sec) 
Heartbeat CPU  0 instructions:   35000000 cycles:   17439310 heartbeat IPC: 2.00269 cumulative IPC: 2.00696 (Simulation time: 0 hr 0 min 50 sec) 
Heartbeat CPU  0 instructions:   36000000 cycles:   17940620 heartbeat IPC: 1.99477 cumulative IPC: 2.00662 (Simulation time: 0 hr 0 min 51 sec) 
Heartbeat CPU  0 instructions:   37000003 cycles:   18442343 heartbeat IPC: 1.99314 cumulative IPC: 2.00625 (Simulation time: 0 hr 0 min 52 sec) 
Heartbeat CPU  0 instructions:   38000003 cycles:   18943188 heartbeat IPC: 1.99663 cumulative IPC: 2.00600 (Simulation time: 0 hr 0 min 54 sec) 
Heartbeat CPU  0 instructions:   39000003 cycles:   19430765 heartbeat IPC: 2.05096 cumulative IPC: 2.00713 (Simulation time: 0 hr 0 min 55 sec) 
Heartbeat CPU  0 instructions:   40000000 cycles:   19931891 heartbeat IPC: 1.99550 cumulative IPC: 2.00683 (Simulation time: 0 hr 0 min 57 sec) 
Heartbeat CPU  0 instructions:   41000001 cycles:   20433736 heartbeat IPC: 1.99265 cumulative IPC: 2.00649 (Simulation time: 0 hr 0 min 58 sec) 
Heartbeat CPU  0 instructions:   42000002 cycles:   20935662 heartbeat IPC: 1.99233 cumulative IPC: 2.00615 (Simulation time: 0 hr 1 min 0 sec) 
Heartbeat CPU  0 instructions:   43000003 cycles:   21427158 heartbeat IPC: 2.03461 cumulative IPC: 2.00680 (Simulation time: 0 hr 1 min 1 sec) 
Heartbeat CPU  0 instructions:   44000000 cycles:   21924096 heartbeat IPC: 2.01232 cumulative IPC: 2.00692 (Simulation time: 0 hr 1 min 2 sec) 
Heartbeat CPU  0 instructions:   45000001 cycles:   22426091 heartbeat IPC: 1.99205 cumulative IPC: 2.00659 (Simulation time: 0 hr 1 min 4 sec) 
Heartbeat CPU  0 instructions:   46000000 cycles:   22927504 heartbeat IPC: 1.99436 cumulative IPC: 2.00632 (Simulation time: 0 hr 1 min 5 sec) 
Heartbeat CPU  0 instructions:   47000002 cycles:   23429371 heartbeat IPC: 1.99256 cumulative IPC: 2.00603 (Simulation time: 0 hr 1 min 7 sec) 
Heartbeat CPU  0 instructions:   48000000 cycles:   23915996 heartbeat IPC: 2.05497 cumulative IPC: 2.00703 (Simulation time: 0 hr 1 min 8 sec) 
Heartbeat CPU  0 instructions:   49000002 cycles:   24417905 heartbeat IPC: 1.99240 cumulative IPC: 2.00672 (Simulation time: 0 hr 1 min 9 sec) 
Heartbeat CPU  0 instructions:   50000003 cycles:   24919282 heartbeat IPC: 1.99451 cumulative IPC: 2.00648 (Simulation time: 0 hr 1 min 11 sec) 
Heartbeat CPU  0 instructions:   51000003 cycles:   25420615 heartbeat IPC: 1.99468 cumulative IPC: 2.00625 (Simulation time: 0 hr 1 min 12 sec) 
Heartbeat CPU  0 instructions:   52000000 cycles:   25914152 heartbeat IPC: 2.02618 cumulative IPC: 2.00663 (Simulation time: 0 hr 1 min 14 sec) 
Heartbeat CPU  0 instructions:   53000001 cycles:   26409246 heartbeat IPC: 2.01982 cumulative IPC: 2.00687 (Simulation time: 0 hr 1 min 15 sec) 
Heartbeat CPU  0 instructions:   54000003 cycles:   26910911 heartbeat IPC: 1.99337 cumulative IPC: 2.00662 (Simulation time: 0 hr 1 min 16 sec) 
Heartbeat CPU  0 instructions:   55000003 cycles:   27412459 heartbeat IPC: 1.99383 cumulative IPC: 2.00639 (Simulation time: 0 hr 1 min 18 sec) 
Heartbeat CPU  0 instructions:   56000000 cycles:   27913708 heartbeat IPC: 1.99501 cumulative IPC: 2.00618 (Simulation time: 0 hr 1 min 19 sec) 
Heartbeat CPU  0 instructions:   57000002 cycles:   28400714 heartbeat IPC: 2.05337 cumulative IPC: 2.00699 (Simulation time: 0 hr 1 min 21 sec) 
Heartbeat CPU  0 instructions:   58000003 cycles:   28902272 heartbeat IPC: 1.99379 cumulative IPC: 2.00676 (Simulation time: 0 hr 1 min 22 sec) 
Heartbeat CPU  0 instructions:   59000001 cycles:   29403948 heartbeat IPC: 1.99331 cumulative IPC: 2.00653 (Simulation time: 0 hr 1 min 23 sec) 
Heartbeat CPU  0 instructions:   60000000 cycles:   29905103 heartbeat IPC: 1.99539 cumulative IPC: 2.00635 (Simulation time: 0 hr 1 min 25 sec) 
Heartbeat CPU  0 instructions:   61000000 cycles:   30401148 heartbeat IPC: 2.01595 cumulative IPC: 2.00650 (Simulation time: 0 hr 1 min 26 sec) 
Heartbeat CPU  0 instructions:   62000001 cycles:   30893469 heartbeat IPC: 2.03120 cumulative IPC: 2.00690 (Simulation time: 0 hr 1 min 28 sec) 
Heartbeat CPU  0 instructions:   63000001 cycles:   31395288 heartbeat IPC: 1.99275 cumulative IPC: 2.00667 (Simulation time: 0 hr 1 min 29 sec) 
Heartbeat CPU  0 instructions:   64000000 cycles:   31897377 heartbeat IPC: 1.99168 cumulative IPC: 2.00643 (Simulation time: 0 hr 1 min 30 sec) 
Heartbeat CPU  0 instructions:   65000000 cycles:   32399098 heartbeat IPC: 1.99314 cumulative IPC: 2.00623 (Simulation time: 0 hr 1 min 32 sec) 
Heartbeat CPU  0 instructions:   66000003 cycles:   32885346 heartbeat IPC: 2.05657 cumulative IPC: 2.00697 (Simulation time: 0 hr 1 min 34 sec) 
Heartbeat CPU  0 instructions:   67000000 cycles:   33387166 heartbeat IPC: 1.99274 cumulative IPC: 2.00676 (Simulation time: 0 hr 1 min 35 sec) 
Heartbeat CPU  0 instructions:   68000000 cycles:   33888982 heartbeat IPC: 1.99276 cumulative IPC: 2.00655 (Simulation time: 0 hr 1 min 36 sec) 
Heartbeat CPU  0 instructions:   69000001 cycles:   34391068 heartbeat IPC: 1.99169 cumulative IPC: 2.00634 (Simulation time: 0 hr 1 min 38 sec) 
Heartbeat CPU  0 instructions:   70000000 cycles:   34888407 heartbeat IPC: 2.01070 cumulative IPC: 2.00640 (Simulation time: 0 hr 1 min 39 sec) 
Heartbeat CPU  0 instructions:   71000001 cycles:   35378939 heartbeat IPC: 2.03860 cumulative IPC: 2.00684 (Simulation time: 0 hr 1 min 41 sec) 
Heartbeat CPU  0 instructions:   72000000 cycles:   35880852 heartbeat IPC: 1.99238 cumulative IPC: 2.00664 (Simulation time: 0 hr 1 min 42 sec) 
Heartbeat CPU  0 instructions:   73000002 cycles:   36381988 heartbeat IPC: 1.99547 cumulative IPC: 2.00649 (Simulation time: 0 hr 1 min 44 sec) 
Heartbeat CPU  0 instructions:   74000003 cycles:   36883801 heartbeat IPC: 1.99278 cumulative IPC: 2.00630 (Simulation time: 0 hr 1 min 45 sec) 
Heartbeat CPU  0 instructions:   75000001 cycles:   37372579 heartbeat IPC: 2.04591 cumulative IPC: 2.00682 (Simulation time: 0 hr 1 min 46 sec) 
Heartbeat CPU  0 instructions:   76000000 cycles:   37871993 heartbeat IPC: 2.00234 cumulative IPC: 2.00676 (Simulation time: 0 hr 1 min 48 sec) 
Heartbeat CPU  0 instructions:   77000000 cycles:   38373765 heartbeat IPC: 1.99294 cumulative IPC: 2.00658 (Simulation time: 0 hr 1 min 49 sec) 
Heartbeat CPU  0 instructions:   78000003 cycles:   38875261 heartbeat IPC: 1.99404 cumulative IPC: 2.00642 (Simulation time: 0 hr 1 min 51 sec) 
Heartbeat CPU  0 instructions:   79000001 cycles:   39375671 heartbeat IPC: 1.99836 cumulative IPC: 2.00631 (Simulation time: 0 hr 1 min 52 sec) 
Heartbeat CPU  0 instructions:   80000000 cycles:   39864235 heartbeat IPC: 2.04681 cumulative IPC: 2.00681 (Simulation time: 0 hr 1 min 54 sec) 
Heartbeat CPU  0 instructions:   81000003 cycles:   40365261 heartbeat IPC: 1.99591 cumulative IPC: 2.00668 (Simulation time: 0 hr 1 min 55 sec) 
Heartbeat CPU  0 instructions:   82000003 cycles:   40866827 heartbeat IPC: 1.99376 cumulative IPC: 2.00652 (Simulation time: 0 hr 1 min 56 sec) 
Heartbeat CPU  0 instructions:   83000001 cycles:   41368516 heartbeat IPC: 1.99326 cumulative IPC: 2.00636 (Simulation time: 0 hr 1 min 58 sec) 
Heartbeat CPU  0 instructions:   84000000 cycles:   41859787 heartbeat IPC: 2.03553 cumulative IPC: 2.00670 (Simulation time: 0 hr 1 min 59 sec) 
Heartbeat CPU  0 instructions:   85000002 cycles:   42357270 heartbeat IPC: 2.01012 cumulative IPC: 2.00674 (Simulation time: 0 hr 2 min 1 sec) 
Heartbeat CPU  0 instructions:   86000002 cycles:   42859202 heartbeat IPC: 1.99230 cumulative IPC: 2.00657 (Simulation time: 0 hr 2 min 2 sec) 
Heartbeat CPU  0 instructions:   87000002 cycles:   43360790 heartbeat IPC: 1.99367 cumulative IPC: 2.00642 (Simulation time: 0 hr 2 min 4 sec) 
Heartbeat CPU  0 instructions:   88000000 cycles:   43862674 heartbeat IPC: 1.99249 cumulative IPC: 2.00626 (Simulation time: 0 hr 2 min 5 sec) 
Heartbeat CPU  0 instructions:   89000003 cycles:   44349389 heartbeat IPC: 2.05460 cumulative IPC: 2.00679 (Simulation time: 0 hr 2 min 7 sec) 
Heartbeat CPU  0 instructions:   90000002 cycles:   44851481 heartbeat IPC: 1.99166 cumulative IPC: 2.00662 (Simulation time: 0 hr 2 min 8 sec) 
Heartbeat CPU  0 instructions:   91000000 cycles:   45352905 heartbeat IPC: 1.99432 cumulative IPC: 2.00649 (Simulation time: 0 hr 2 min 10 sec) 
Heartbeat CPU  0 instructions:   92000000 cycles:   45854570 heartbeat IPC: 1.99336 cumulative IPC: 2.00634 (Simulation time: 0 hr 2 min 11 sec) 
Heartbeat CPU  0 instructions:   93000002 cycles:   46347421 heartbeat IPC: 2.02901 cumulative IPC: 2.00658 (Simulation time: 0 hr 2 min 13 sec) 
Heartbeat CPU  0 instructions:   94000003 cycles:   46843210 heartbeat IPC: 2.01699 cumulative IPC: 2.00669 (Simulation time: 0 hr 2 min 14 sec) 
Heartbeat CPU  0 instructions:   95000003 cycles:   47344834 heartbeat IPC: 1.99353 cumulative IPC: 2.00655 (Simulation time: 0 hr 2 min 16 sec) 
Heartbeat CPU  0 instructions:   96000000 cycles:   47846492 heartbeat IPC: 1.99338 cumulative IPC: 2.00642 (Simulation time: 0 hr 2 min 17 sec) 
Heartbeat CPU  0 instructions:   97000000 cycles:   48347871 heartbeat IPC: 1.99450 cumulative IPC: 2.00629 (Simulation time: 0 hr 2 min 19 sec) 
Heartbeat CPU  0 instructions:   98000000 cycles:   48834611 heartbeat IPC: 2.05448 cumulative IPC: 2.00677 (Simulation time: 0 hr 2 min 20 sec) 
Heartbeat CPU  0 instructions:   99000002 cycles:   49336282 heartbeat IPC: 1.99334 cumulative IPC: 2.00664 (Simulation time: 0 hr 2 min 21 sec) 
Heartbeat CPU  0 instructions:  100000000 cycles:   49837882 heartbeat IPC: 1.99362 cumulative IPC: 2.00651 (Simulation time: 0 hr 2 min 23 sec) 

Warmup complete CPU  0 instructions:  100000003 cycles:   49837883 (Simulation time: 0 hr 2 min 23 sec) 

Heartbeat CPU  0 instructions:  101000001 cycles:   50706099 heartbeat IPC: 1.15179 cumulative IPC: 1.15178 (Simulation time: 0 hr 2 min 25 sec) 
Heartbeat CPU  0 instructions:  102000002 cycles:   51577733 heartbeat IPC: 1.14727 cumulative IPC: 1.14952 (Simulation time: 0 hr 2 min 26 sec) 
Heartbeat CPU  0 instructions:  103000001 cycles:   52459618 heartbeat IPC: 1.13393 cumulative IPC: 1.14428 (Simulation time: 0 hr 2 min 28 sec) 
Heartbeat CPU  0 instructions:  104000000 cycles:   53337853 heartbeat IPC: 1.13865 cumulative IPC: 1.14287 (Simulation time: 0 hr 2 min 29 sec) 
Heartbeat CPU  0 instructions:  105000003 cycles:   54195933 heartbeat IPC: 1.16540 cumulative IPC: 1.14730 (Simulation time: 0 hr 2 min 31 sec) 
Heartbeat CPU  0 instructions:  106000001 cycles:   55055884 heartbeat IPC: 1.16285 cumulative IPC: 1.14987 (Simulation time: 0 hr 2 min 33 sec) 
Heartbeat CPU  0 instructions:  107000002 cycles:   55930142 heartbeat IPC: 1.14383 cumulative IPC: 1.14900 (Simulation time: 0 hr 2 min 35 sec) 
Heartbeat CPU  0 instructions:  108000000 cycles:   56806917 heartbeat IPC: 1.14054 cumulative IPC: 1.14793 (Simulation time: 0 hr 2 min 36 sec) 
Heartbeat CPU  0 instructions:  109000003 cycles:   57684454 heartbeat IPC: 1.13956 cumulative IPC: 1.14700 (Simulation time: 0 hr 2 min 38 sec) 
Heartbeat CPU  0 instructions:  110000001 cycles:   58548457 heartbeat IPC: 1.15740 cumulative IPC: 1.14803 (Simulation time: 0 hr 2 min 40 sec) 
Heartbeat CPU  0 instructions:  111000003 cycles:   59404274 heartbeat IPC: 1.16848 cumulative IPC: 1.14986 (Simulation time: 0 hr 2 min 41 sec) 
Heartbeat CPU  0 instructions:  112000000 cycles:   60283091 heartbeat IPC: 1.13789 cumulative IPC: 1.14885 (Simulation time: 0 hr 2 min 43 sec) 
Heartbeat CPU  0 instructions:  113000002 cycles:   61163131 heartbeat IPC: 1.13631 cumulative IPC: 1.14788 (Simulation time: 0 hr 2 min 45 sec) 
Heartbeat CPU  0 instructions:  114000002 cycles:   62042664 heartbeat IPC: 1.13697 cumulative IPC: 1.14709 (Simulation time: 0 hr 2 min 46 sec) 
Heartbeat CPU  0 instructions:  115000000 cycles:   62914525 heartbeat IPC: 1.14697 cumulative IPC: 1.14708 (Simulation time: 0 hr 2 min 48 sec) 
Heartbeat CPU  0 instructions:  116000000 cycles:   63779729 heartbeat IPC: 1.15580 cumulative IPC: 1.14762 (Simulation time: 0 hr 2 min 50 sec) 
Heartbeat CPU  0 instructions:  117000002 cycles:   64651594 heartbeat IPC: 1.14697 cumulative IPC: 1.14759 (Simulation time: 0 hr 2 min 51 sec) 
Heartbeat CPU  0 instructions:  118000001 cycles:   65522717 heartbeat IPC: 1.14794 cumulative IPC: 1.14761 (Simulation time: 0 hr 2 min 53 sec) 
Heartbeat CPU  0 instructions:  119000002 cycles:   66402681 heartbeat IPC: 1.13641 cumulative IPC: 1.14701 (Simulation time: 0 hr 2 min 54 sec) 
Heartbeat CPU  0 instructions:  120000000 cycles:   67281135 heartbeat IPC: 1.13836 cumulative IPC: 1.14657 (Simulation time: 0 hr 2 min 56 sec) 
Heartbeat CPU  0 instructions:  121000001 cycles:   68147593 heartbeat IPC: 1.15413 cumulative IPC: 1.14693 (Simulation time: 0 hr 2 min 58 sec) 
Heartbeat CPU  0 instructions:  122000002 cycles:   69015871 heartbeat IPC: 1.15171 cumulative IPC: 1.14715 (Simulation time: 0 hr 2 min 59 sec) 
Heartbeat CPU  0 instructions:  123000000 cycles:   69887230 heartbeat IPC: 1.14763 cumulative IPC: 1.14717 (Simulation time: 0 hr 3 min 1 sec) 
Heartbeat CPU  0 instructions:  124000000 cycles:   70766421 heartbeat IPC: 1.13741 cumulative IPC: 1.14676 (Simulation time: 0 hr 3 min 3 sec) 
Heartbeat CPU  0 instructions:  125000000 cycles:   71652777 heartbeat IPC: 1.12821 cumulative IPC: 1.14601 (Simulation time: 0 hr 3 min 4 sec) 
Heartbeat CPU  0 instructions:  126000000 cycles:   72511154 heartbeat IPC: 1.16499 cumulative IPC: 1.14672 (Simulation time: 0 hr 3 min 6 sec) 
Heartbeat CPU  0 instructions:  127000000 cycles:   73375780 heartbeat IPC: 1.15657 cumulative IPC: 1.14709 (Simulation time: 0 hr 3 min 8 sec) 
Heartbeat CPU  0 instructions:  128000000 cycles:   74245963 heartbeat IPC: 1.14918 cumulative IPC: 1.14716 (Simulation time: 0 hr 3 min 9 sec) 
Heartbeat CPU  0 instructions:  129000002 cycles:   75123916 heartbeat IPC: 1.13902 cumulative IPC: 1.14688 (Simulation time: 0 hr 3 min 11 sec) 
Heartbeat CPU  0 instructions:  130000002 cycles:   76010024 heartbeat IPC: 1.12853 cumulative IPC: 1.14626 (Simulation time: 0 hr 3 min 13 sec) 
Heartbeat CPU  0 instructions:  131000002 cycles:   76876124 heartbeat IPC: 1.15460 cumulative IPC: 1.14652 (Simulation time: 0 hr 3 min 14 sec) 
Heartbeat CPU  0 instructions:  132000000 cycles:   77738014 heartbeat IPC: 1.16024 cumulative IPC: 1.14695 (Simulation time: 0 hr 3 min 16 sec) 
Heartbeat CPU  0 instructions:  133000000 cycles:   78608357 heartbeat IPC: 1.14897 cumulative IPC: 1.14701 (Simulation time: 0 hr 3 min 18 sec) 
Heartbeat CPU  0 instructions:  134000000 cycles:   79486782 heartbeat IPC: 1.13840 cumulative IPC: 1.14675 (Simulation time: 0 hr 3 min 19 sec) 
Heartbeat CPU  0 instructions:  135000002 cycles:   80372972 heartbeat IPC: 1.12843 cumulative IPC: 1.14622 (Simulation time: 0 hr 3 min 21 sec) 
Heartbeat CPU  0 instructions:  136000000 cycles:   81235835 heartbeat IPC: 1.15893 cumulative IPC: 1.14657 (Simulation time: 0 hr 3 min 23 sec) 
Heartbeat CPU  0 instructions:  137000001 cycles:   82097596 heartbeat IPC: 1.16042 cumulative IPC: 1.14694 (Simulation time: 0 hr 3 min 24 sec) 
Heartbeat CPU  0 instructions:  138000003 cycles:   82966557 heartbeat IPC: 1.15080 cumulative IPC: 1.14704 (Simulation time: 0 hr 3 min 26 sec) 
Heartbeat CPU  0 instructions:  139000003 cycles:   83843552 heartbeat IPC: 1.14026 cumulative IPC: 1.14687 (Simulation time: 0 hr 3 min 28 sec) 
Heartbeat CPU  0 instructions:  140000000 cycles:   84731180 heartbeat IPC: 1.12659 cumulative IPC: 1.14635 (Simulation time: 0 hr 3 min 29 sec) 
Heartbeat CPU  0 instructions:  141000003 cycles:   85595393 heartbeat IPC: 1.15713 cumulative IPC: 1.14661 (Simulation time: 0 hr 3 min 31 sec) 
Heartbeat CPU  0 instructions:  142000000 cycles:   86452668 heartbeat IPC: 1.16648 cumulative IPC: 1.14708 (Simulation time: 0 hr 3 min 33 sec) 
Heartbeat CPU  0 instructions:  143000000 cycles:   87317228 heartbeat IPC: 1.15666 cumulative IPC: 1.14730 (Simulation time: 0 hr 3 min 34 sec) 
Heartbeat CPU  0 instructions:  144000000 cycles:   88192748 heartbeat IPC: 1.14218 cumulative IPC: 1.14718 (Simulation time: 0 hr 3 min 36 sec) 
Heartbeat CPU  0 instructions:  145000002 cycles:   89069866 heartbeat IPC: 1.14010 cumulative IPC: 1.14702 (Simulation time: 0 hr 3 min 38 sec) 
Heartbeat CPU  0 instructions:  146000002 cycles:   89942834 heartbeat IPC: 1.14552 cumulative IPC: 1.14699 (Simulation time: 0 hr 3 min 39 sec) 
Heartbeat CPU  0 instructions:  147000002 cycles:   90860556 heartbeat IPC: 1.08965 cumulative IPC: 1.14571 (Simulation time: 0 hr 3 min 41 sec) 
Heartbeat CPU  0 instructions:  148000000 cycles:   92141957 heartbeat IPC: 0.78039 cumulative IPC: 1.13464 (Simulation time: 0 hr 3 min 43 sec) 
Heartbeat CPU  0 instructions:  149000002 cycles:   93432477 heartbeat IPC: 0.77488 cumulative IPC: 1.12399 (Simulation time: 0 hr 3 min 45 sec) 
Heartbeat CPU  0 instructions:  150000002 cycles:   94702934 heartbeat IPC: 0.78712 cumulative IPC: 1.11445 (Simulation time: 0 hr 3 min 47 sec) 
Heartbeat CPU  0 instructions:  151000000 cycles:   95959123 heartbeat IPC: 0.79606 cumulative IPC: 1.10578 (Simulation time: 0 hr 3 min 49 sec) 
Heartbeat CPU  0 instructions:  152000000 cycles:   97224509 heartbeat IPC: 0.79027 cumulative IPC: 1.09736 (Simulation time: 0 hr 3 min 50 sec) 
Heartbeat CPU  0 instructions:  153000003 cycles:   98493064 heartbeat IPC: 0.78830 cumulative IPC: 1.08930 (Simulation time: 0 hr 3 min 52 sec) 
Heartbeat CPU  0 instructions:  154000002 cycles:   99767184 heartbeat IPC: 0.78485 cumulative IPC: 1.08153 (Simulation time: 0 hr 3 min 54 sec) 
Heartbeat CPU  0 instructions:  155000003 cycles:  101056195 heartbeat IPC: 0.77579 cumulative IPC: 1.07383 (Simulation time: 0 hr 3 min 56 sec) 
Heartbeat CPU  0 instructions:  156000000 cycles:  102329946 heartbeat IPC: 0.78508 cumulative IPC: 1.06683 (Simulation time: 0 hr 3 min 58 sec) 
Heartbeat CPU  0 instructions:  157000003 cycles:  103617545 heartbeat IPC: 0.77664 cumulative IPC: 1.05988 (Simulation time: 0 hr 3 min 59 sec) 
Heartbeat CPU  0 instructions:  158000000 cycles:  104899586 heartbeat IPC: 0.78000 cumulative IPC: 1.05336 (Simulation time: 0 hr 4 min 1 sec) 
Heartbeat CPU  0 instructions:  159000003 cycles:  106188989 heartbeat IPC: 0.77556 cumulative IPC: 1.04701 (Simulation time: 0 hr 4 min 3 sec) 
Heartbeat CPU  0 instructions:  160000000 cycles:  107475721 heartbeat IPC: 0.77716 cumulative IPC: 1.04098 (Simulation time: 0 hr 4 min 5 sec) 
Heartbeat CPU  0 instructions:  161000000 cycles:  108761101 heartbeat IPC: 0.77798 cumulative IPC: 1.03525 (Simulation time: 0 hr 4 min 7 sec) 
Heartbeat CPU  0 instructions:  162000000 cycles:  110056701 heartbeat IPC: 0.77184 cumulative IPC: 1.02958 (Simulation time: 0 hr 4 min 9 sec) 
Heartbeat CPU  0 instructions:  163000002 cycles:  111359291 heartbeat IPC: 0.76770 cumulative IPC: 1.02403 (Simulation time: 0 hr 4 min 11 sec) 
Heartbeat CPU  0 instructions:  164000000 cycles:  112649268 heartbeat IPC: 0.77521 cumulative IPC: 1.01892 (Simulation time: 0 hr 4 min 12 sec) 
Heartbeat CPU  0 instructions:  165000003 cycles:  113936160 heartbeat IPC: 0.77707 cumulative IPC: 1.01407 (Simulation time: 0 hr 4 min 14 sec) 
Heartbeat CPU  0 instructions:  166000001 cycles:  115237223 heartbeat IPC: 0.76860 cumulative IPC: 1.00918 (Simulation time: 0 hr 4 min 16 sec) 
Heartbeat CPU  0 instructions:  167000001 cycles:  116519210 heartbeat IPC: 0.78004 cumulative IPC: 1.00478 (Simulation time: 0 hr 4 min 18 sec) 
Heartbeat CPU  0 instructions:  168000000 cycles:  117809640 heartbeat IPC: 0.77493 cumulative IPC: 1.00042 (Simulation time: 0 hr 4 min 20 sec) 
Heartbeat CPU  0 instructions:  169000002 cycles:  119101111 heartbeat IPC: 0.77431 cumulative IPC: 0.99620 (Simulation time: 0 hr 4 min 21 sec) 
Heartbeat CPU  0 instructions:  170000002 cycles:  120391534 heartbeat IPC: 0.77494 cumulative IPC: 0.99215 (Simulation time: 0 hr 4 min 23 sec) 
Heartbeat CPU  0 instructions:  171000002 cycles:  121684932 heartbeat IPC: 0.77316 cumulative IPC: 0.98821 (Simulation time: 0 hr 4 min 25 sec) 
Heartbeat CPU  0 instructions:  172000000 cycles:  122976190 heartbeat IPC: 0.77444 cumulative IPC: 0.98444 (Simulation time: 0 hr 4 min 27 sec) 
Heartbeat CPU  0 instructions:  173000002 cycles:  124251560 heartbeat IPC: 0.78409 cumulative IPC: 0.98100 (Simulation time: 0 hr 4 min 29 sec) 
Heartbeat CPU  0 instructions:  174000003 cycles:  125543656 heartbeat IPC: 0.77394 cumulative IPC: 0.97747 (Simulation time: 0 hr 4 min 31 sec) 
Heartbeat CPU  0 instructions:  175000002 cycles:  126839925 heartbeat IPC: 0.77144 cumulative IPC: 0.97400 (Simulation time: 0 hr 4 min 32 sec) 
Heartbeat CPU  0 instructions:  176000000 cycles:  128124295 heartbeat IPC: 0.77859 cumulative IPC: 0.97079 (Simulation time: 0 hr 4 min 34 sec) 
Heartbeat CPU  0 instructions:  177000003 cycles:  129415199 heartbeat IPC: 0.77465 cumulative IPC: 0.96761 (Simulation time: 0 hr 4 min 36 sec) 
Heartbeat CPU  0 instructions:  178000000 cycles:  130714781 heartbeat IPC: 0.76948 cumulative IPC: 0.96443 (Simulation time: 0 hr 4 min 38 sec) 
Heartbeat CPU  0 instructions:  179000002 cycles:  132003384 heartbeat IPC: 0.77604 cumulative IPC: 0.96147 (Simulation time: 0 hr 4 min 40 sec) 
Heartbeat CPU  0 instructions:  180000000 cycles:  133293078 heartbeat IPC: 0.77538 cumulative IPC: 0.95860 (Simulation time: 0 hr 4 min 41 sec) 
Heartbeat CPU  0 instructions:  181000003 cycles:  134584615 heartbeat IPC: 0.77427 cumulative IPC: 0.95579 (Simulation time: 0 hr 4 min 43 sec) 
Heartbeat CPU  0 instructions:  182000002 cycles:  135883523 heartbeat IPC: 0.76988 cumulative IPC: 0.95298 (Simulation time: 0 hr 4 min 45 sec) 
Heartbeat CPU  0 instructions:  183000000 cycles:  137166243 heartbeat IPC: 0.77959 cumulative IPC: 0.95044 (Simulation time: 0 hr 4 min 47 sec) 
Heartbeat CPU  0 instructions:  184000000 cycles:  138444841 heartbeat IPC: 0.78211 cumulative IPC: 0.94801 (Simulation time: 0 hr 4 min 49 sec) 
Heartbeat CPU  0 instructions:  185000003 cycles:  139731337 heartbeat IPC: 0.77731 cumulative IPC: 0.94556 (Simulation time: 0 hr 4 min 51 sec) 
Heartbeat CPU  0 instructions:  186000001 cycles:  141016229 heartbeat IPC: 0.77827 cumulative IPC: 0.94321 (Simulation time: 0 hr 4 min 52 sec) 
Heartbeat CPU  0 instructions:  187000002 cycles:  142304827 heartbeat IPC: 0.77604 cumulative IPC: 0.94088 (Simulation time: 0 hr 4 min 54 sec) 
Heartbeat CPU  0 instructions:  188000000 cycles:  143586281 heartbeat IPC: 0.78036 cumulative IPC: 0.93868 (Simulation time: 0 hr 4 min 56 sec) 
Heartbeat CPU  0 instructions:  189000001 cycles:  144891364 heartbeat IPC: 0.76624 cumulative IPC: 0.93632 (Simulation time: 0 hr 4 min 58 sec) 
Heartbeat CPU  0 instructions:  190000003 cycles:  146181846 heartbeat IPC: 0.77491 cumulative IPC: 0.93415 (Simulation time: 0 hr 5 min 0 sec) 
Heartbeat CPU  0 instructions:  191000002 cycles:  147481157 heartbeat IPC: 0.76964 cumulative IPC: 0.93196 (Simulation time: 0 hr 5 min 1 sec) 
Heartbeat CPU  0 instructions:  192000000 cycles:  148730685 heartbeat IPC: 0.80030 cumulative IPC: 0.93030 (Simulation time: 0 hr 5 min 3 sec) 
Heartbeat CPU  0 instructions:  193000003 cycles:  149674916 heartbeat IPC: 1.05907 cumulative IPC: 0.93152 (Simulation time: 0 hr 5 min 5 sec) 
Heartbeat CPU  0 instructions:  194000002 cycles:  154019030 heartbeat IPC: 0.23020 cumulative IPC: 0.90227 (Simulation time: 0 hr 5 min 9 sec) 
Heartbeat CPU  0 instructions:  195000000 cycles:  157373909 heartbeat IPC: 0.29807 cumulative IPC: 0.88342 (Simulation time: 0 hr 5 min 12 sec) 
Heartbeat CPU  0 instructions:  196000000 cycles:  158084976 heartbeat IPC: 1.40634 cumulative IPC: 0.88686 (Simulation time: 0 hr 5 min 13 sec) 
Heartbeat CPU  0 instructions:  197000000 cycles:  158812145 heartbeat IPC: 1.37520 cumulative IPC: 0.89012 (Simulation time: 0 hr 5 min 15 sec) 
Heartbeat CPU  0 instructions:  198000003 cycles:  159524744 heartbeat IPC: 1.40332 cumulative IPC: 0.89345 (Simulation time: 0 hr 5 min 17 sec) 
Heartbeat CPU  0 instructions:  199000002 cycles:  160237701 heartbeat IPC: 1.40261 cumulative IPC: 0.89674 (Simulation time: 0 hr 5 min 19 sec) 
Heartbeat CPU  0 instructions:  200000000 cycles:  160948527 heartbeat IPC: 1.40681 cumulative IPC: 0.90000 (Simulation time: 0 hr 5 min 20 sec) 
Finished CPU 0 instructions: 100000000 cycles: 111110673 cumulative IPC: 0.90000 (Simulation time: 0 hr 5 min 20 sec) 

ChampSim completed all CPUs

[ROI Statistics]
Core_0_instructions 100000000
Core_0_cycles 111110673
Core_0_IPC 0.90000

Core_0_branch_prediction_accuracy 99.15344
Core_0_branch_MPKI 0.35029
Core_0_average_ROB_occupancy_at_mispredict 249.75346

Core_0_L1D_total_access 49416078
Core_0_L1D_total_hit 47438699
Core_0_L1D_total_miss 1977379
Core_0_L1D_loads 23275064
Core_0_L1D_load_hit 22667627
Core_0_L1D_load_miss 607437
Core_0_L1D_RFOs 4511502
Core_0_L1D_RFO_hit 4196600
Core_0_L1D_RFO_miss 314902
Core_0_L1D_prefetches 21629512
Core_0_L1D_prefetch_hit 20574472
Core_0_L1D_prefetch_miss 1055040
Core_0_L1D_writebacks 0
Core_0_L1D_writeback_hit 0
Core_0_L1D_writeback_miss 0
Core_0_L1D_prefetch_requested 59197418
Core_0_L1D_prefetch_issued 57127926
Core_0_L1D_prefetch_useful 1577164
Core_0_L1D_prefetch_useless 1190108
Core_0_L1D_prefetch_late 208907
Core_0_L1D_average_miss_latency 11839177.48911

Core_0_L1I_total_access 22686941
Core_0_L1I_total_hit 22686721
Core_0_L1I_total_miss 220
Core_0_L1I_loads 22686941
Core_0_L1I_load_hit 22686721
Core_0_L1I_load_miss 220
Core_0_L1I_RFOs 0
Core_0_L1I_RFO_hit 0
Core_0_L1I_RFO_miss 0
Core_0_L1I_prefetches 0
Core_0_L1I_prefetch_hit 0
Core_0_L1I_prefetch_miss 0
Core_0_L1I_writebacks 0
Core_0_L1I_writeback_hit 0
Core_0_L1I_writeback_miss 0
Core_0_L1I_prefetch_requested 0
Core_0_L1I_prefetch_issued 0
Core_0_L1I_prefetch_useful 0
Core_0_L1I_prefetch_useless 0
Core_0_L1I_prefetch_late 0
Core_0_L1I_average_miss_latency 259.71818

Core_0_L2C_total_access 3639985
Core_0_L2C_total_hit 2542460
Core_0_L2C_total_miss 1097525
Core_0_L2C_loads 400401
Core_0_L2C_load_hit 333118
Core_0_L2C_load_miss 67283
Core_0_L2C_RFOs 314733
Core_0_L2C_RFO_hit 130164
Core_0_L2C_RFO_miss 184569
Core_0_L2C_prefetches 2365912
Core_0_L2C_prefetch_hit 1520383
Core_0_L2C_prefetch_miss 845529
Core_0_L2C_writebacks 558939
Core_0_L2C_writeback_hit 558795
Core_0_L2C_writeback_miss 144
Core_0_L2C_prefetch_requested 4020336
Core_0_L2C_prefetch_issued 3961036
Core_0_L2C_prefetch_useful 163490
Core_0_L2C_prefetch_useless 1203316
Core_0_L2C_prefetch_late 2961
Core_0_L2C_average_miss_latency 267.75610

Core_0_LLC_total_access 1503909
Core_0_LLC_total_hit 192786
Core_0_LLC_total_miss 1311123
Core_0_LLC_loads 64387
Core_0_LLC_load_hit 11721
Core_0_LLC_load_miss 52666
Core_0_LLC_RFOs 184568
Core_0_LLC_RFO_hit 9027
Core_0_LLC_RFO_miss 175541
Core_0_LLC_prefetches 848423
Core_0_LLC_prefetch_hit 76118
Core_0_LLC_prefetch_miss 772305
Core_0_LLC_writebacks 406531
Core_0_LLC_writeback_hit 95920
Core_0_LLC_writeback_miss 310611
Core_0_LLC_prefetch_requested 0
Core_0_LLC_prefetch_issued 0
Core_0_LLC_prefetch_useful 18498
Core_0_LLC_prefetch_useless 1108365
Core_0_LLC_prefetch_late 0
Core_0_LLC_average_miss_latency 198.14468

Core_0_major_page_fault 0
Core_0_minor_page_fault 15627

CPU 0 L1D next line prefetcher final stats
CPU 0 L2C next line prefetcher final stats
Channel_0_RQ_row_buffer_hit 346072
Channel_0_RQ_row_buffer_miss 654424
Channel_0_WQ_row_buffer_hit 90839
Channel_0_WQ_row_buffer_miss 284527
Channel_0_WQ_full 0
Channel_0_dbus_congested 482102

avg_congested_cycle 9
