*************************************************
   ChampSim Multicore Out-of-Order Simulator
   Last compiled: Dec 23 2023 16:30:39
*************************************************

trace_0 ./test_trace/437.leslie3d-134B.champsimtrace.xz
CPU 0 L2C next line prefetcher
Initialize SHIP state
warmup_instructions 100000000
simulation_instructions 100000000
champsim_seed 218

num_cpus 1
cpu_freq 4000
dram_io_freq 2400
page_size 4096
block_size 64
max_read_per_cycle 8
max_fill_per_cycle 1
dram_channels 1
dram_ranks 1
dram_banks 8
dram_rows 65536
dram_columns 128
dram_row_size 8
dram_size 4096
dram_pages 1048576

fetch_width 6
decode_width 6
exec_width 4
lq_width 2
sq_width 2
retire_width 4
scheduler_size 128
branch_mispredict_penalty 20
rob_size 256
lq_size 72
sq_size 56
num_instr_destinations_sparc 4
num_instr_destinations 2
num_instr_sources 4

itlb_set 16
itlb_way 8
itlb_rq_size 16
itlb_wq_size 16
itlb_pq_size 0
itlb_mshr_size 8
itlb_latency 1

dtlb_set 16
dtlb_way 4
dtlb_rq_size 16
dtlb_wq_size 16
dtlb_pq_size 0
dtlb_mshr_size 8
dtlb_latency 1

stlb_set 128
stlb_way 12
stlb_rq_size 32
stlb_wq_size 32
stlb_pq_size 0
stlb_mshr_size 16
stlb_latency 8

l1i_size 32
l1i_set 64
l1i_way 8
l1i_rq_size 64
l1i_wq_size 64
l1i_pq_size 8
l1i_mshr_size 8
l1i_latency 1

l1d_size 32
l1d_set 64
l1d_way 8
l1d_rq_size 64
l1d_wq_size 64
l1d_pq_size 8
l1d_mshr_size 16
l1d_latency 4

l2c_size 512
l2c_set 1024
l2c_way 8
l2c_rq_size 32
l2c_wq_size 32
l2c_pq_size 16
l2c_mshr_size 32
l2c_latency 10

llc_size 2048
llc_set 2048
llc_way 16
llc_rq_size 32
llc_wq_size 32
llc_pq_size 32
llc_mshr_size 64
llc_latency 20

dram_channel_width 8
dram_wq_size 64
dram_rq_size 64
tRP 15
tRCD 15
tCAS 12.5
dram_dbus_turn_around_time 30
dram_write_high_wm 56
dram_write_low_wm 48
min_dram_writes_per_switch 16
dram_mtps 2400
dram_dbus_return_time 13


Heartbeat CPU  0 instructions:    1000002 cycles:     502312 heartbeat IPC: 1.99080 cumulative IPC: 1.99080 (Simulation time: 0 hr 0 min 1 sec) 
Heartbeat CPU  0 instructions:    2000001 cycles:     993826 heartbeat IPC: 2.03453 cumulative IPC: 2.01243 (Simulation time: 0 hr 0 min 3 sec) 
Heartbeat CPU  0 instructions:    3000001 cycles:    1490533 heartbeat IPC: 2.01326 cumulative IPC: 2.01270 (Simulation time: 0 hr 0 min 4 sec) 
Heartbeat CPU  0 instructions:    4000000 cycles:    1992286 heartbeat IPC: 1.99301 cumulative IPC: 2.00774 (Simulation time: 0 hr 0 min 6 sec) 
Heartbeat CPU  0 instructions:    5000000 cycles:    2494295 heartbeat IPC: 1.99200 cumulative IPC: 2.00457 (Simulation time: 0 hr 0 min 7 sec) 
Heartbeat CPU  0 instructions:    6000001 cycles:    2996150 heartbeat IPC: 1.99261 cumulative IPC: 2.00257 (Simulation time: 0 hr 0 min 8 sec) 
Heartbeat CPU  0 instructions:    7000000 cycles:    3482911 heartbeat IPC: 2.05439 cumulative IPC: 2.00981 (Simulation time: 0 hr 0 min 10 sec) 
Heartbeat CPU  0 instructions:    8000000 cycles:    3984616 heartbeat IPC: 1.99320 cumulative IPC: 2.00772 (Simulation time: 0 hr 0 min 11 sec) 
Heartbeat CPU  0 instructions:    9000001 cycles:    4485751 heartbeat IPC: 1.99547 cumulative IPC: 2.00635 (Simulation time: 0 hr 0 min 13 sec) 
Heartbeat CPU  0 instructions:   10000000 cycles:    4987765 heartbeat IPC: 1.99197 cumulative IPC: 2.00491 (Simulation time: 0 hr 0 min 14 sec) 
Heartbeat CPU  0 instructions:   11000001 cycles:    5481698 heartbeat IPC: 2.02457 cumulative IPC: 2.00668 (Simulation time: 0 hr 0 min 16 sec) 
Heartbeat CPU  0 instructions:   12000000 cycles:    5976527 heartbeat IPC: 2.02090 cumulative IPC: 2.00786 (Simulation time: 0 hr 0 min 17 sec) 
Heartbeat CPU  0 instructions:   13000003 cycles:    6478125 heartbeat IPC: 1.99363 cumulative IPC: 2.00675 (Simulation time: 0 hr 0 min 19 sec) 
Heartbeat CPU  0 instructions:   14000001 cycles:    6979712 heartbeat IPC: 1.99367 cumulative IPC: 2.00581 (Simulation time: 0 hr 0 min 20 sec) 
Heartbeat CPU  0 instructions:   15000003 cycles:    7481448 heartbeat IPC: 1.99308 cumulative IPC: 2.00496 (Simulation time: 0 hr 0 min 21 sec) 
Heartbeat CPU  0 instructions:   16000000 cycles:    7968594 heartbeat IPC: 2.05277 cumulative IPC: 2.00788 (Simulation time: 0 hr 0 min 23 sec) 
Heartbeat CPU  0 instructions:   17000001 cycles:    8470363 heartbeat IPC: 1.99295 cumulative IPC: 2.00700 (Simulation time: 0 hr 0 min 24 sec) 
Heartbeat CPU  0 instructions:   18000001 cycles:    8971745 heartbeat IPC: 1.99449 cumulative IPC: 2.00630 (Simulation time: 0 hr 0 min 26 sec) 
Heartbeat CPU  0 instructions:   19000003 cycles:    9472924 heartbeat IPC: 1.99530 cumulative IPC: 2.00572 (Simulation time: 0 hr 0 min 27 sec) 
Heartbeat CPU  0 instructions:   20000000 cycles:    9969733 heartbeat IPC: 2.01284 cumulative IPC: 2.00607 (Simulation time: 0 hr 0 min 29 sec) 
Heartbeat CPU  0 instructions:   21000001 cycles:   10461767 heartbeat IPC: 2.03238 cumulative IPC: 2.00731 (Simulation time: 0 hr 0 min 30 sec) 
Heartbeat CPU  0 instructions:   22000003 cycles:   10963772 heartbeat IPC: 1.99202 cumulative IPC: 2.00661 (Simulation time: 0 hr 0 min 32 sec) 
Heartbeat CPU  0 instructions:   23000001 cycles:   11465964 heartbeat IPC: 1.99127 cumulative IPC: 2.00594 (Simulation time: 0 hr 0 min 33 sec) 
Heartbeat CPU  0 instructions:   24000000 cycles:   11967414 heartbeat IPC: 1.99421 cumulative IPC: 2.00545 (Simulation time: 0 hr 0 min 34 sec) 
Heartbeat CPU  0 instructions:   25000003 cycles:   12454061 heartbeat IPC: 2.05488 cumulative IPC: 2.00738 (Simulation time: 0 hr 0 min 36 sec) 
Heartbeat CPU  0 instructions:   26000001 cycles:   12956010 heartbeat IPC: 1.99223 cumulative IPC: 2.00679 (Simulation time: 0 hr 0 min 37 sec) 
Heartbeat CPU  0 instructions:   27000003 cycles:   13458191 heartbeat IPC: 1.99132 cumulative IPC: 2.00621 (Simulation time: 0 hr 0 min 39 sec) 
Heartbeat CPU  0 instructions:   28000000 cycles:   13960148 heartbeat IPC: 1.99220 cumulative IPC: 2.00571 (Simulation time: 0 hr 0 min 40 sec) 
Heartbeat CPU  0 instructions:   29000002 cycles:   14457617 heartbeat IPC: 2.01018 cumulative IPC: 2.00586 (Simulation time: 0 hr 0 min 42 sec) 
Heartbeat CPU  0 instructions:   30000000 cycles:   14948145 heartbeat IPC: 2.03862 cumulative IPC: 2.00694 (Simulation time: 0 hr 0 min 43 sec) 
Heartbeat CPU  0 instructions:   31000002 cycles:   15449993 heartbeat IPC: 1.99264 cumulative IPC: 2.00647 (Simulation time: 0 hr 0 min 45 sec) 
Heartbeat CPU  0 instructions:   32000000 cycles:   15951522 heartbeat IPC: 1.99390 cumulative IPC: 2.00608 (Simulation time: 0 hr 0 min 46 sec) 
Heartbeat CPU  0 instructions:   33000001 cycles:   16453540 heartbeat IPC: 1.99196 cumulative IPC: 2.00565 (Simulation time: 0 hr 0 min 48 sec) 
Heartbeat CPU  0 instructions:   34000003 cycles:   16941960 heartbeat IPC: 2.04742 cumulative IPC: 2.00685 (Simulation time: 0 hr 0 min 49 sec) 
Heartbeat CPU  0 instructions:   35000000 cycles:   17441517 heartbeat IPC: 2.00177 cumulative IPC: 2.00671 (Simulation time: 0 hr 0 min 51 sec) 
Heartbeat CPU  0 instructions:   36000000 cycles:   17943053 heartbeat IPC: 1.99387 cumulative IPC: 2.00635 (Simulation time: 0 hr 0 min 52 sec) 
Heartbeat CPU  0 instructions:   37000003 cycles:   18444884 heartbeat IPC: 1.99271 cumulative IPC: 2.00598 (Simulation time: 0 hr 0 min 53 sec) 
Heartbeat CPU  0 instructions:   38000003 cycles:   18945642 heartbeat IPC: 1.99697 cumulative IPC: 2.00574 (Simulation time: 0 hr 0 min 55 sec) 
Heartbeat CPU  0 instructions:   39000003 cycles:   19432930 heartbeat IPC: 2.05217 cumulative IPC: 2.00690 (Simulation time: 0 hr 0 min 56 sec) 
Heartbeat CPU  0 instructions:   40000000 cycles:   19934193 heartbeat IPC: 1.99495 cumulative IPC: 2.00660 (Simulation time: 0 hr 0 min 58 sec) 
Heartbeat CPU  0 instructions:   41000001 cycles:   20436257 heartbeat IPC: 1.99178 cumulative IPC: 2.00624 (Simulation time: 0 hr 0 min 59 sec) 
Heartbeat CPU  0 instructions:   42000002 cycles:   20938333 heartbeat IPC: 1.99173 cumulative IPC: 2.00589 (Simulation time: 0 hr 1 min 1 sec) 
Heartbeat CPU  0 instructions:   43000003 cycles:   21429776 heartbeat IPC: 2.03483 cumulative IPC: 2.00655 (Simulation time: 0 hr 1 min 2 sec) 
Heartbeat CPU  0 instructions:   44000000 cycles:   21926681 heartbeat IPC: 2.01245 cumulative IPC: 2.00669 (Simulation time: 0 hr 1 min 3 sec) 
Heartbeat CPU  0 instructions:   45000001 cycles:   22428640 heartbeat IPC: 1.99220 cumulative IPC: 2.00636 (Simulation time: 0 hr 1 min 5 sec) 
Heartbeat CPU  0 instructions:   46000000 cycles:   22930265 heartbeat IPC: 1.99352 cumulative IPC: 2.00608 (Simulation time: 0 hr 1 min 6 sec) 
Heartbeat CPU  0 instructions:   47000002 cycles:   23432329 heartbeat IPC: 1.99178 cumulative IPC: 2.00578 (Simulation time: 0 hr 1 min 8 sec) 
Heartbeat CPU  0 instructions:   48000000 cycles:   23918889 heartbeat IPC: 2.05524 cumulative IPC: 2.00678 (Simulation time: 0 hr 1 min 9 sec) 
Heartbeat CPU  0 instructions:   49000002 cycles:   24420748 heartbeat IPC: 1.99260 cumulative IPC: 2.00649 (Simulation time: 0 hr 1 min 11 sec) 
Heartbeat CPU  0 instructions:   50000003 cycles:   24922090 heartbeat IPC: 1.99465 cumulative IPC: 2.00625 (Simulation time: 0 hr 1 min 12 sec) 
Heartbeat CPU  0 instructions:   51000003 cycles:   25423702 heartbeat IPC: 1.99357 cumulative IPC: 2.00600 (Simulation time: 0 hr 1 min 13 sec) 
Heartbeat CPU  0 instructions:   52000000 cycles:   25917285 heartbeat IPC: 2.02600 cumulative IPC: 2.00638 (Simulation time: 0 hr 1 min 15 sec) 
Heartbeat CPU  0 instructions:   53000001 cycles:   26412360 heartbeat IPC: 2.01990 cumulative IPC: 2.00664 (Simulation time: 0 hr 1 min 16 sec) 
Heartbeat CPU  0 instructions:   54000003 cycles:   26914037 heartbeat IPC: 1.99332 cumulative IPC: 2.00639 (Simulation time: 0 hr 1 min 18 sec) 
Heartbeat CPU  0 instructions:   55000003 cycles:   27415605 heartbeat IPC: 1.99375 cumulative IPC: 2.00616 (Simulation time: 0 hr 1 min 19 sec) 
Heartbeat CPU  0 instructions:   56000000 cycles:   27917057 heartbeat IPC: 1.99420 cumulative IPC: 2.00594 (Simulation time: 0 hr 1 min 20 sec) 
Heartbeat CPU  0 instructions:   57000002 cycles:   28404094 heartbeat IPC: 2.05324 cumulative IPC: 2.00675 (Simulation time: 0 hr 1 min 22 sec) 
Heartbeat CPU  0 instructions:   58000003 cycles:   28905783 heartbeat IPC: 1.99327 cumulative IPC: 2.00652 (Simulation time: 0 hr 1 min 23 sec) 
Heartbeat CPU  0 instructions:   59000001 cycles:   29407495 heartbeat IPC: 1.99317 cumulative IPC: 2.00629 (Simulation time: 0 hr 1 min 25 sec) 
Heartbeat CPU  0 instructions:   60000000 cycles:   29908582 heartbeat IPC: 1.99566 cumulative IPC: 2.00611 (Simulation time: 0 hr 1 min 26 sec) 
Heartbeat CPU  0 instructions:   61000000 cycles:   30404579 heartbeat IPC: 2.01614 cumulative IPC: 2.00628 (Simulation time: 0 hr 1 min 28 sec) 
Heartbeat CPU  0 instructions:   62000001 cycles:   30897044 heartbeat IPC: 2.03060 cumulative IPC: 2.00666 (Simulation time: 0 hr 1 min 29 sec) 
Heartbeat CPU  0 instructions:   63000001 cycles:   31398984 heartbeat IPC: 1.99227 cumulative IPC: 2.00643 (Simulation time: 0 hr 1 min 30 sec) 
Heartbeat CPU  0 instructions:   64000000 cycles:   31901186 heartbeat IPC: 1.99123 cumulative IPC: 2.00620 (Simulation time: 0 hr 1 min 32 sec) 
Heartbeat CPU  0 instructions:   65000000 cycles:   32402800 heartbeat IPC: 1.99356 cumulative IPC: 2.00600 (Simulation time: 0 hr 1 min 33 sec) 
Heartbeat CPU  0 instructions:   66000003 cycles:   32889043 heartbeat IPC: 2.05659 cumulative IPC: 2.00675 (Simulation time: 0 hr 1 min 35 sec) 
Heartbeat CPU  0 instructions:   67000000 cycles:   33391153 heartbeat IPC: 1.99159 cumulative IPC: 2.00652 (Simulation time: 0 hr 1 min 36 sec) 
Heartbeat CPU  0 instructions:   68000000 cycles:   33893111 heartbeat IPC: 1.99220 cumulative IPC: 2.00631 (Simulation time: 0 hr 1 min 38 sec) 
Heartbeat CPU  0 instructions:   69000001 cycles:   34395304 heartbeat IPC: 1.99127 cumulative IPC: 2.00609 (Simulation time: 0 hr 1 min 39 sec) 
Heartbeat CPU  0 instructions:   70000000 cycles:   34892461 heartbeat IPC: 2.01144 cumulative IPC: 2.00616 (Simulation time: 0 hr 1 min 41 sec) 
Heartbeat CPU  0 instructions:   71000001 cycles:   35382918 heartbeat IPC: 2.03892 cumulative IPC: 2.00662 (Simulation time: 0 hr 1 min 42 sec) 
Heartbeat CPU  0 instructions:   72000000 cycles:   35885131 heartbeat IPC: 1.99119 cumulative IPC: 2.00640 (Simulation time: 0 hr 1 min 44 sec) 
Heartbeat CPU  0 instructions:   73000002 cycles:   36386515 heartbeat IPC: 1.99448 cumulative IPC: 2.00624 (Simulation time: 0 hr 1 min 45 sec) 
Heartbeat CPU  0 instructions:   74000003 cycles:   36888412 heartbeat IPC: 1.99244 cumulative IPC: 2.00605 (Simulation time: 0 hr 1 min 47 sec) 
Heartbeat CPU  0 instructions:   75000001 cycles:   37376979 heartbeat IPC: 2.04680 cumulative IPC: 2.00658 (Simulation time: 0 hr 1 min 48 sec) 
Heartbeat CPU  0 instructions:   76000000 cycles:   37876430 heartbeat IPC: 2.00220 cumulative IPC: 2.00652 (Simulation time: 0 hr 1 min 49 sec) 
Heartbeat CPU  0 instructions:   77000000 cycles:   38378405 heartbeat IPC: 1.99213 cumulative IPC: 2.00634 (Simulation time: 0 hr 1 min 51 sec) 
Heartbeat CPU  0 instructions:   78000003 cycles:   38880094 heartbeat IPC: 1.99327 cumulative IPC: 2.00617 (Simulation time: 0 hr 1 min 52 sec) 
Heartbeat CPU  0 instructions:   79000001 cycles:   39380490 heartbeat IPC: 1.99841 cumulative IPC: 2.00607 (Simulation time: 0 hr 1 min 54 sec) 
Heartbeat CPU  0 instructions:   80000000 cycles:   39869051 heartbeat IPC: 2.04683 cumulative IPC: 2.00657 (Simulation time: 0 hr 1 min 55 sec) 
Heartbeat CPU  0 instructions:   81000003 cycles:   40370017 heartbeat IPC: 1.99615 cumulative IPC: 2.00644 (Simulation time: 0 hr 1 min 57 sec) 
Heartbeat CPU  0 instructions:   82000003 cycles:   40871702 heartbeat IPC: 1.99328 cumulative IPC: 2.00628 (Simulation time: 0 hr 1 min 58 sec) 
Heartbeat CPU  0 instructions:   83000001 cycles:   41373651 heartbeat IPC: 1.99223 cumulative IPC: 2.00611 (Simulation time: 0 hr 2 min 0 sec) 
Heartbeat CPU  0 instructions:   84000000 cycles:   41864909 heartbeat IPC: 2.03559 cumulative IPC: 2.00645 (Simulation time: 0 hr 2 min 1 sec) 
Heartbeat CPU  0 instructions:   85000002 cycles:   42362415 heartbeat IPC: 2.01003 cumulative IPC: 2.00650 (Simulation time: 0 hr 2 min 2 sec) 
Heartbeat CPU  0 instructions:   86000002 cycles:   42864303 heartbeat IPC: 1.99248 cumulative IPC: 2.00633 (Simulation time: 0 hr 2 min 4 sec) 
Heartbeat CPU  0 instructions:   87000002 cycles:   43366055 heartbeat IPC: 1.99302 cumulative IPC: 2.00618 (Simulation time: 0 hr 2 min 5 sec) 
Heartbeat CPU  0 instructions:   88000000 cycles:   43868134 heartbeat IPC: 1.99171 cumulative IPC: 2.00601 (Simulation time: 0 hr 2 min 7 sec) 
Heartbeat CPU  0 instructions:   89000003 cycles:   44354851 heartbeat IPC: 2.05459 cumulative IPC: 2.00655 (Simulation time: 0 hr 2 min 8 sec) 
Heartbeat CPU  0 instructions:   90000002 cycles:   44857084 heartbeat IPC: 1.99111 cumulative IPC: 2.00637 (Simulation time: 0 hr 2 min 10 sec) 
Heartbeat CPU  0 instructions:   91000000 cycles:   45358592 heartbeat IPC: 1.99398 cumulative IPC: 2.00624 (Simulation time: 0 hr 2 min 11 sec) 
Heartbeat CPU  0 instructions:   92000000 cycles:   45860374 heartbeat IPC: 1.99290 cumulative IPC: 2.00609 (Simulation time: 0 hr 2 min 12 sec) 
Heartbeat CPU  0 instructions:   93000002 cycles:   46353389 heartbeat IPC: 2.02834 cumulative IPC: 2.00633 (Simulation time: 0 hr 2 min 14 sec) 
Heartbeat CPU  0 instructions:   94000003 cycles:   46849208 heartbeat IPC: 2.01687 cumulative IPC: 2.00644 (Simulation time: 0 hr 2 min 15 sec) 
Heartbeat CPU  0 instructions:   95000003 cycles:   47350889 heartbeat IPC: 1.99330 cumulative IPC: 2.00630 (Simulation time: 0 hr 2 min 17 sec) 
Heartbeat CPU  0 instructions:   96000000 cycles:   47852646 heartbeat IPC: 1.99299 cumulative IPC: 2.00616 (Simulation time: 0 hr 2 min 18 sec) 
Heartbeat CPU  0 instructions:   97000000 cycles:   48354109 heartbeat IPC: 1.99417 cumulative IPC: 2.00603 (Simulation time: 0 hr 2 min 20 sec) 
Heartbeat CPU  0 instructions:   98000000 cycles:   48840868 heartbeat IPC: 2.05440 cumulative IPC: 2.00652 (Simulation time: 0 hr 2 min 21 sec) 
Heartbeat CPU  0 instructions:   99000002 cycles:   49342787 heartbeat IPC: 1.99236 cumulative IPC: 2.00637 (Simulation time: 0 hr 2 min 22 sec) 
Heartbeat CPU  0 instructions:  100000000 cycles:   49844507 heartbeat IPC: 1.99314 cumulative IPC: 2.00624 (Simulation time: 0 hr 2 min 24 sec) 

Warmup complete CPU  0 instructions:  100000003 cycles:   49844508 (Simulation time: 0 hr 2 min 24 sec) 

Heartbeat CPU  0 instructions:  101000001 cycles:   50749315 heartbeat IPC: 1.10521 cumulative IPC: 1.10521 (Simulation time: 0 hr 2 min 26 sec) 
Heartbeat CPU  0 instructions:  102000002 cycles:   51649140 heartbeat IPC: 1.11133 cumulative IPC: 1.10826 (Simulation time: 0 hr 2 min 27 sec) 
Heartbeat CPU  0 instructions:  103000002 cycles:   52562337 heartbeat IPC: 1.09505 cumulative IPC: 1.10382 (Simulation time: 0 hr 2 min 29 sec) 
Heartbeat CPU  0 instructions:  104000000 cycles:   53479258 heartbeat IPC: 1.09060 cumulative IPC: 1.10049 (Simulation time: 0 hr 2 min 30 sec) 
Heartbeat CPU  0 instructions:  105000000 cycles:   54373982 heartbeat IPC: 1.11766 cumulative IPC: 1.10388 (Simulation time: 0 hr 2 min 32 sec) 
Heartbeat CPU  0 instructions:  106000001 cycles:   55273935 heartbeat IPC: 1.11117 cumulative IPC: 1.10509 (Simulation time: 0 hr 2 min 34 sec) 
Heartbeat CPU  0 instructions:  107000002 cycles:   56175121 heartbeat IPC: 1.10965 cumulative IPC: 1.10574 (Simulation time: 0 hr 2 min 35 sec) 
Heartbeat CPU  0 instructions:  108000000 cycles:   57088949 heartbeat IPC: 1.09430 cumulative IPC: 1.10429 (Simulation time: 0 hr 2 min 37 sec) 
Heartbeat CPU  0 instructions:  109000003 cycles:   58002676 heartbeat IPC: 1.09442 cumulative IPC: 1.10319 (Simulation time: 0 hr 2 min 39 sec) 
Heartbeat CPU  0 instructions:  110000001 cycles:   58902382 heartbeat IPC: 1.11147 cumulative IPC: 1.10401 (Simulation time: 0 hr 2 min 40 sec) 
Heartbeat CPU  0 instructions:  111000003 cycles:   59790956 heartbeat IPC: 1.12540 cumulative IPC: 1.10592 (Simulation time: 0 hr 2 min 42 sec) 
Heartbeat CPU  0 instructions:  112000000 cycles:   60700177 heartbeat IPC: 1.09984 cumulative IPC: 1.10541 (Simulation time: 0 hr 2 min 43 sec) 
Heartbeat CPU  0 instructions:  113000001 cycles:   61612656 heartbeat IPC: 1.09592 cumulative IPC: 1.10468 (Simulation time: 0 hr 2 min 45 sec) 
Heartbeat CPU  0 instructions:  114000002 cycles:   62530225 heartbeat IPC: 1.08984 cumulative IPC: 1.10360 (Simulation time: 0 hr 2 min 47 sec) 
Heartbeat CPU  0 instructions:  115000000 cycles:   63438545 heartbeat IPC: 1.10093 cumulative IPC: 1.10342 (Simulation time: 0 hr 2 min 48 sec) 
Heartbeat CPU  0 instructions:  116000000 cycles:   64328378 heartbeat IPC: 1.12381 cumulative IPC: 1.10468 (Simulation time: 0 hr 2 min 50 sec) 
Heartbeat CPU  0 instructions:  117000002 cycles:   65236775 heartbeat IPC: 1.10084 cumulative IPC: 1.10445 (Simulation time: 0 hr 2 min 52 sec) 
Heartbeat CPU  0 instructions:  118000001 cycles:   66146484 heartbeat IPC: 1.09925 cumulative IPC: 1.10416 (Simulation time: 0 hr 2 min 53 sec) 
Heartbeat CPU  0 instructions:  119000002 cycles:   67066819 heartbeat IPC: 1.08656 cumulative IPC: 1.10322 (Simulation time: 0 hr 2 min 55 sec) 
Heartbeat CPU  0 instructions:  120000000 cycles:   67981478 heartbeat IPC: 1.09330 cumulative IPC: 1.10272 (Simulation time: 0 hr 2 min 57 sec) 
Heartbeat CPU  0 instructions:  121000001 cycles:   68878096 heartbeat IPC: 1.11530 cumulative IPC: 1.10331 (Simulation time: 0 hr 2 min 58 sec) 
Heartbeat CPU  0 instructions:  122000002 cycles:   69784866 heartbeat IPC: 1.10282 cumulative IPC: 1.10329 (Simulation time: 0 hr 3 min 0 sec) 
Heartbeat CPU  0 instructions:  123000001 cycles:   70699672 heartbeat IPC: 1.09313 cumulative IPC: 1.10284 (Simulation time: 0 hr 3 min 1 sec) 
Heartbeat CPU  0 instructions:  124000000 cycles:   71620401 heartbeat IPC: 1.08609 cumulative IPC: 1.10214 (Simulation time: 0 hr 3 min 3 sec) 
Heartbeat CPU  0 instructions:  125000000 cycles:   72535588 heartbeat IPC: 1.09267 cumulative IPC: 1.10175 (Simulation time: 0 hr 3 min 5 sec) 
Heartbeat CPU  0 instructions:  126000000 cycles:   73431327 heartbeat IPC: 1.11640 cumulative IPC: 1.10231 (Simulation time: 0 hr 3 min 6 sec) 
Heartbeat CPU  0 instructions:  127000000 cycles:   74332052 heartbeat IPC: 1.11022 cumulative IPC: 1.10260 (Simulation time: 0 hr 3 min 8 sec) 
Heartbeat CPU  0 instructions:  128000000 cycles:   75234525 heartbeat IPC: 1.10807 cumulative IPC: 1.10280 (Simulation time: 0 hr 3 min 10 sec) 
Heartbeat CPU  0 instructions:  129000002 cycles:   76154076 heartbeat IPC: 1.08749 cumulative IPC: 1.10226 (Simulation time: 0 hr 3 min 11 sec) 
Heartbeat CPU  0 instructions:  130000002 cycles:   77066261 heartbeat IPC: 1.09627 cumulative IPC: 1.10206 (Simulation time: 0 hr 3 min 13 sec) 
Heartbeat CPU  0 instructions:  131000002 cycles:   77968084 heartbeat IPC: 1.10887 cumulative IPC: 1.10228 (Simulation time: 0 hr 3 min 15 sec) 
Heartbeat CPU  0 instructions:  132000000 cycles:   78865803 heartbeat IPC: 1.11393 cumulative IPC: 1.10264 (Simulation time: 0 hr 3 min 16 sec) 
Heartbeat CPU  0 instructions:  133000000 cycles:   79776982 heartbeat IPC: 1.09748 cumulative IPC: 1.10248 (Simulation time: 0 hr 3 min 18 sec) 
Heartbeat CPU  0 instructions:  134000000 cycles:   80684305 heartbeat IPC: 1.10214 cumulative IPC: 1.10247 (Simulation time: 0 hr 3 min 19 sec) 
Heartbeat CPU  0 instructions:  135000002 cycles:   81609964 heartbeat IPC: 1.08031 cumulative IPC: 1.10183 (Simulation time: 0 hr 3 min 21 sec) 
Heartbeat CPU  0 instructions:  136000000 cycles:   82510127 heartbeat IPC: 1.11091 cumulative IPC: 1.10208 (Simulation time: 0 hr 3 min 23 sec) 
Heartbeat CPU  0 instructions:  137000001 cycles:   83400874 heartbeat IPC: 1.12265 cumulative IPC: 1.10262 (Simulation time: 0 hr 3 min 24 sec) 
Heartbeat CPU  0 instructions:  138000003 cycles:   84310472 heartbeat IPC: 1.09939 cumulative IPC: 1.10254 (Simulation time: 0 hr 3 min 26 sec) 
Heartbeat CPU  0 instructions:  139000003 cycles:   85211661 heartbeat IPC: 1.10965 cumulative IPC: 1.10272 (Simulation time: 0 hr 3 min 28 sec) 
Heartbeat CPU  0 instructions:  140000000 cycles:   86135394 heartbeat IPC: 1.08256 cumulative IPC: 1.10221 (Simulation time: 0 hr 3 min 29 sec) 
Heartbeat CPU  0 instructions:  141000003 cycles:   87045106 heartbeat IPC: 1.09925 cumulative IPC: 1.10213 (Simulation time: 0 hr 3 min 31 sec) 
Heartbeat CPU  0 instructions:  142000000 cycles:   87940300 heartbeat IPC: 1.11707 cumulative IPC: 1.10248 (Simulation time: 0 hr 3 min 33 sec) 
Heartbeat CPU  0 instructions:  143000000 cycles:   88835796 heartbeat IPC: 1.11670 cumulative IPC: 1.10281 (Simulation time: 0 hr 3 min 34 sec) 
Heartbeat CPU  0 instructions:  144000000 cycles:   89747614 heartbeat IPC: 1.09671 cumulative IPC: 1.10267 (Simulation time: 0 hr 3 min 36 sec) 
Heartbeat CPU  0 instructions:  145000002 cycles:   90662119 heartbeat IPC: 1.09349 cumulative IPC: 1.10247 (Simulation time: 0 hr 3 min 37 sec) 
Heartbeat CPU  0 instructions:  146000002 cycles:   91569484 heartbeat IPC: 1.10209 cumulative IPC: 1.10246 (Simulation time: 0 hr 3 min 39 sec) 
Heartbeat CPU  0 instructions:  147000002 cycles:   92523970 heartbeat IPC: 1.04768 cumulative IPC: 1.10123 (Simulation time: 0 hr 3 min 41 sec) 
Heartbeat CPU  0 instructions:  148000000 cycles:   93969705 heartbeat IPC: 0.69169 cumulative IPC: 1.08781 (Simulation time: 0 hr 3 min 43 sec) 
Heartbeat CPU  0 instructions:  149000002 cycles:   95408711 heartbeat IPC: 0.69493 cumulative IPC: 1.07541 (Simulation time: 0 hr 3 min 44 sec) 
Heartbeat CPU  0 instructions:  150000002 cycles:   96832495 heartbeat IPC: 0.70235 cumulative IPC: 1.06410 (Simulation time: 0 hr 3 min 46 sec) 
Heartbeat CPU  0 instructions:  151000000 cycles:   98252670 heartbeat IPC: 0.70414 cumulative IPC: 1.05354 (Simulation time: 0 hr 3 min 48 sec) 
Heartbeat CPU  0 instructions:  152000000 cycles:   99680592 heartbeat IPC: 0.70032 cumulative IPC: 1.04342 (Simulation time: 0 hr 3 min 50 sec) 
Heartbeat CPU  0 instructions:  153000003 cycles:  101107430 heartbeat IPC: 0.70085 cumulative IPC: 1.03389 (Simulation time: 0 hr 3 min 52 sec) 
Heartbeat CPU  0 instructions:  154000002 cycles:  102526651 heartbeat IPC: 0.70461 cumulative IPC: 1.02502 (Simulation time: 0 hr 3 min 53 sec) 
Heartbeat CPU  0 instructions:  155000003 cycles:  103963985 heartbeat IPC: 0.69573 cumulative IPC: 1.01627 (Simulation time: 0 hr 3 min 55 sec) 
Heartbeat CPU  0 instructions:  156000000 cycles:  105400856 heartbeat IPC: 0.69595 cumulative IPC: 1.00799 (Simulation time: 0 hr 3 min 57 sec) 
Heartbeat CPU  0 instructions:  157000003 cycles:  106827798 heartbeat IPC: 0.70080 cumulative IPC: 1.00029 (Simulation time: 0 hr 3 min 59 sec) 
Heartbeat CPU  0 instructions:  158000003 cycles:  108257801 heartbeat IPC: 0.69930 cumulative IPC: 0.99292 (Simulation time: 0 hr 4 min 1 sec) 
Heartbeat CPU  0 instructions:  159000003 cycles:  109696954 heartbeat IPC: 0.69485 cumulative IPC: 0.98576 (Simulation time: 0 hr 4 min 3 sec) 
Heartbeat CPU  0 instructions:  160000000 cycles:  111133214 heartbeat IPC: 0.69625 cumulative IPC: 0.97897 (Simulation time: 0 hr 4 min 5 sec) 
Heartbeat CPU  0 instructions:  161000000 cycles:  112570310 heartbeat IPC: 0.69585 cumulative IPC: 0.97249 (Simulation time: 0 hr 4 min 7 sec) 
Heartbeat CPU  0 instructions:  162000000 cycles:  114010465 heartbeat IPC: 0.69437 cumulative IPC: 0.96624 (Simulation time: 0 hr 4 min 9 sec) 
Heartbeat CPU  0 instructions:  163000002 cycles:  115462321 heartbeat IPC: 0.68877 cumulative IPC: 0.96011 (Simulation time: 0 hr 4 min 10 sec) 
Heartbeat CPU  0 instructions:  164000000 cycles:  116902752 heartbeat IPC: 0.69424 cumulative IPC: 0.95439 (Simulation time: 0 hr 4 min 12 sec) 
Heartbeat CPU  0 instructions:  165000001 cycles:  118358295 heartbeat IPC: 0.68703 cumulative IPC: 0.94871 (Simulation time: 0 hr 4 min 14 sec) 
Heartbeat CPU  0 instructions:  166000001 cycles:  119800581 heartbeat IPC: 0.69334 cumulative IPC: 0.94345 (Simulation time: 0 hr 4 min 16 sec) 
Heartbeat CPU  0 instructions:  167000001 cycles:  121226412 heartbeat IPC: 0.70135 cumulative IPC: 0.93861 (Simulation time: 0 hr 4 min 18 sec) 
Heartbeat CPU  0 instructions:  168000000 cycles:  122665195 heartbeat IPC: 0.69503 cumulative IPC: 0.93380 (Simulation time: 0 hr 4 min 20 sec) 
Heartbeat CPU  0 instructions:  169000002 cycles:  124114393 heartbeat IPC: 0.69004 cumulative IPC: 0.92904 (Simulation time: 0 hr 4 min 22 sec) 
Heartbeat CPU  0 instructions:  170000002 cycles:  125544771 heartbeat IPC: 0.69912 cumulative IPC: 0.92470 (Simulation time: 0 hr 4 min 23 sec) 
Heartbeat CPU  0 instructions:  171000002 cycles:  126978853 heartbeat IPC: 0.69731 cumulative IPC: 0.92047 (Simulation time: 0 hr 4 min 25 sec) 
Heartbeat CPU  0 instructions:  172000000 cycles:  128409764 heartbeat IPC: 0.69885 cumulative IPC: 0.91644 (Simulation time: 0 hr 4 min 27 sec) 
Heartbeat CPU  0 instructions:  173000002 cycles:  129854960 heartbeat IPC: 0.69195 cumulative IPC: 0.91238 (Simulation time: 0 hr 4 min 29 sec) 
Heartbeat CPU  0 instructions:  174000002 cycles:  131303598 heartbeat IPC: 0.69030 cumulative IPC: 0.90843 (Simulation time: 0 hr 4 min 31 sec) 
Heartbeat CPU  0 instructions:  175000002 cycles:  132758115 heartbeat IPC: 0.68751 cumulative IPC: 0.90456 (Simulation time: 0 hr 4 min 33 sec) 
Heartbeat CPU  0 instructions:  176000000 cycles:  134210368 heartbeat IPC: 0.68858 cumulative IPC: 0.90084 (Simulation time: 0 hr 4 min 35 sec) 
Heartbeat CPU  0 instructions:  177000003 cycles:  135659540 heartbeat IPC: 0.69005 cumulative IPC: 0.89728 (Simulation time: 0 hr 4 min 37 sec) 
Heartbeat CPU  0 instructions:  178000000 cycles:  137103432 heartbeat IPC: 0.69257 cumulative IPC: 0.89389 (Simulation time: 0 hr 4 min 38 sec) 
Heartbeat CPU  0 instructions:  179000002 cycles:  138544037 heartbeat IPC: 0.69415 cumulative IPC: 0.89065 (Simulation time: 0 hr 4 min 40 sec) 
Heartbeat CPU  0 instructions:  180000000 cycles:  139990663 heartbeat IPC: 0.69126 cumulative IPC: 0.88745 (Simulation time: 0 hr 4 min 42 sec) 
Heartbeat CPU  0 instructions:  181000003 cycles:  141428578 heartbeat IPC: 0.69545 cumulative IPC: 0.88443 (Simulation time: 0 hr 4 min 44 sec) 
Heartbeat CPU  0 instructions:  182000002 cycles:  142867630 heartbeat IPC: 0.69490 cumulative IPC: 0.88150 (Simulation time: 0 hr 4 min 46 sec) 
Heartbeat CPU  0 instructions:  183000000 cycles:  144306114 heartbeat IPC: 0.69517 cumulative IPC: 0.87866 (Simulation time: 0 hr 4 min 48 sec) 
Heartbeat CPU  0 instructions:  184000000 cycles:  145755317 heartbeat IPC: 0.69003 cumulative IPC: 0.87581 (Simulation time: 0 hr 4 min 50 sec) 
Heartbeat CPU  0 instructions:  185000003 cycles:  147186429 heartbeat IPC: 0.69876 cumulative IPC: 0.87321 (Simulation time: 0 hr 4 min 51 sec) 
Heartbeat CPU  0 instructions:  186000001 cycles:  148622039 heartbeat IPC: 0.69657 cumulative IPC: 0.87064 (Simulation time: 0 hr 4 min 53 sec) 
Heartbeat CPU  0 instructions:  187000002 cycles:  150065174 heartbeat IPC: 0.69294 cumulative IPC: 0.86808 (Simulation time: 0 hr 4 min 55 sec) 
Heartbeat CPU  0 instructions:  188000000 cycles:  151499457 heartbeat IPC: 0.69721 cumulative IPC: 0.86567 (Simulation time: 0 hr 4 min 57 sec) 
Heartbeat CPU  0 instructions:  189000001 cycles:  152930841 heartbeat IPC: 0.69863 cumulative IPC: 0.86335 (Simulation time: 0 hr 4 min 59 sec) 
Heartbeat CPU  0 instructions:  190000003 cycles:  154375580 heartbeat IPC: 0.69217 cumulative IPC: 0.86099 (Simulation time: 0 hr 5 min 1 sec) 
Heartbeat CPU  0 instructions:  191000002 cycles:  155810428 heartbeat IPC: 0.69694 cumulative IPC: 0.85877 (Simulation time: 0 hr 5 min 3 sec) 
Heartbeat CPU  0 instructions:  192000000 cycles:  157220864 heartbeat IPC: 0.70900 cumulative IPC: 0.85680 (Simulation time: 0 hr 5 min 5 sec) 
Heartbeat CPU  0 instructions:  193000003 cycles:  158366909 heartbeat IPC: 0.87257 cumulative IPC: 0.85697 (Simulation time: 0 hr 5 min 7 sec) 
Heartbeat CPU  0 instructions:  194000001 cycles:  162455115 heartbeat IPC: 0.24461 cumulative IPC: 0.83473 (Simulation time: 0 hr 5 min 10 sec) 
Heartbeat CPU  0 instructions:  195000000 cycles:  165775904 heartbeat IPC: 0.30113 cumulative IPC: 0.81945 (Simulation time: 0 hr 5 min 13 sec) 
Heartbeat CPU  0 instructions:  196000000 cycles:  166507903 heartbeat IPC: 1.36612 cumulative IPC: 0.82288 (Simulation time: 0 hr 5 min 15 sec) 
Heartbeat CPU  0 instructions:  197000000 cycles:  167278500 heartbeat IPC: 1.29770 cumulative IPC: 0.82600 (Simulation time: 0 hr 5 min 17 sec) 
Heartbeat CPU  0 instructions:  198000003 cycles:  168018433 heartbeat IPC: 1.35148 cumulative IPC: 0.82929 (Simulation time: 0 hr 5 min 19 sec) 
Heartbeat CPU  0 instructions:  199000002 cycles:  168743623 heartbeat IPC: 1.37895 cumulative IPC: 0.83264 (Simulation time: 0 hr 5 min 20 sec) 
Heartbeat CPU  0 instructions:  200000000 cycles:  169466322 heartbeat IPC: 1.38370 cumulative IPC: 0.83597 (Simulation time: 0 hr 5 min 22 sec) 
Finished CPU 0 instructions: 100000000 cycles: 119621843 cumulative IPC: 0.83597 (Simulation time: 0 hr 5 min 22 sec) 

ChampSim completed all CPUs

[ROI Statistics]
Core_0_instructions 100000000
Core_0_cycles 119621843
Core_0_IPC 0.83597

Core_0_branch_prediction_accuracy 99.15344
Core_0_branch_MPKI 0.35029
Core_0_average_ROB_occupancy_at_mispredict 249.79114

Core_0_L1D_total_access 27366654
Core_0_L1D_total_hit 25924720
Core_0_L1D_total_miss 1441934
Core_0_L1D_loads 22899845
Core_0_L1D_load_hit 21794906
Core_0_L1D_load_miss 1104939
Core_0_L1D_RFOs 4466809
Core_0_L1D_RFO_hit 4129814
Core_0_L1D_RFO_miss 336995
Core_0_L1D_prefetches 0
Core_0_L1D_prefetch_hit 0
Core_0_L1D_prefetch_miss 0
Core_0_L1D_writebacks 0
Core_0_L1D_writeback_hit 0
Core_0_L1D_writeback_miss 0
Core_0_L1D_prefetch_requested 0
Core_0_L1D_prefetch_issued 0
Core_0_L1D_prefetch_useful 0
Core_0_L1D_prefetch_useless 0
Core_0_L1D_prefetch_late 0
Core_0_L1D_average_miss_latency 84.71375

Core_0_L1I_total_access 22789220
Core_0_L1I_total_hit 22789000
Core_0_L1I_total_miss 220
Core_0_L1I_loads 22789220
Core_0_L1I_load_hit 22789000
Core_0_L1I_load_miss 220
Core_0_L1I_RFOs 0
Core_0_L1I_RFO_hit 0
Core_0_L1I_RFO_miss 0
Core_0_L1I_prefetches 0
Core_0_L1I_prefetch_hit 0
Core_0_L1I_prefetch_miss 0
Core_0_L1I_writebacks 0
Core_0_L1I_writeback_hit 0
Core_0_L1I_writeback_miss 0
Core_0_L1I_prefetch_requested 0
Core_0_L1I_prefetch_issued 0
Core_0_L1I_prefetch_useful 0
Core_0_L1I_prefetch_useless 0
Core_0_L1I_prefetch_late 0
Core_0_L1I_average_miss_latency 214.06818

Core_0_L2C_total_access 2828443
Core_0_L2C_total_hit 1787061
Core_0_L2C_total_miss 1041382
Core_0_L2C_loads 1105155
Core_0_L2C_load_hit 787912
Core_0_L2C_load_miss 317243
Core_0_L2C_RFOs 336943
Core_0_L2C_RFO_hit 137295
Core_0_L2C_RFO_miss 199648
Core_0_L2C_prefetches 833214
Core_0_L2C_prefetch_hit 308864
Core_0_L2C_prefetch_miss 524350
Core_0_L2C_writebacks 553131
Core_0_L2C_writeback_hit 552990
Core_0_L2C_writeback_miss 141
Core_0_L2C_prefetch_requested 2362148
Core_0_L2C_prefetch_issued 2325613
Core_0_L2C_prefetch_useful 966767
Core_0_L2C_prefetch_useless 50951
Core_0_L2C_prefetch_late 246081
Core_0_L2C_average_miss_latency 214.09796

Core_0_LLC_total_access 1447250
Core_0_LLC_total_hit 184374
Core_0_LLC_total_miss 1262876
Core_0_LLC_loads 71283
Core_0_LLC_load_hit 11922
Core_0_LLC_load_miss 59361
Core_0_LLC_RFOs 199647
Core_0_LLC_RFO_hit 10266
Core_0_LLC_RFO_miss 189381
Core_0_LLC_prefetches 770309
Core_0_LLC_prefetch_hit 68018
Core_0_LLC_prefetch_miss 702291
Core_0_LLC_writebacks 406011
Core_0_LLC_writeback_hit 94168
Core_0_LLC_writeback_miss 311843
Core_0_LLC_prefetch_requested 0
Core_0_LLC_prefetch_issued 0
Core_0_LLC_prefetch_useful 16289
Core_0_LLC_prefetch_useless 1033110
Core_0_LLC_prefetch_late 0
Core_0_LLC_average_miss_latency 174.95000

Core_0_major_page_fault 0
Core_0_minor_page_fault 15627

CPU 0 L2C next line prefetcher final stats
Channel_0_RQ_row_buffer_hit 321475
Channel_0_RQ_row_buffer_miss 629523
Channel_0_WQ_row_buffer_hit 89602
Channel_0_WQ_row_buffer_miss 283975
Channel_0_WQ_full 0
Channel_0_dbus_congested 327294

avg_congested_cycle 9
