*************************************************
   ChampSim Multicore Out-of-Order Simulator
   Last compiled: Dec 23 2023 16:02:52
*************************************************

trace_0 ./test_trace/437.leslie3d-134B.champsimtrace.xz
CPU 0 L1D next line prefetcher
CPU 0 L2C next line prefetcher
warmup_instructions 100000000
simulation_instructions 100000000
champsim_seed 218

num_cpus 1
cpu_freq 4000
dram_io_freq 2400
page_size 4096
block_size 64
max_read_per_cycle 8
max_fill_per_cycle 1
dram_channels 1
dram_ranks 1
dram_banks 8
dram_rows 65536
dram_columns 128
dram_row_size 8
dram_size 4096
dram_pages 1048576

fetch_width 6
decode_width 6
exec_width 4
lq_width 2
sq_width 2
retire_width 4
scheduler_size 128
branch_mispredict_penalty 20
rob_size 256
lq_size 72
sq_size 56
num_instr_destinations_sparc 4
num_instr_destinations 2
num_instr_sources 4

itlb_set 16
itlb_way 8
itlb_rq_size 16
itlb_wq_size 16
itlb_pq_size 0
itlb_mshr_size 8
itlb_latency 1

dtlb_set 16
dtlb_way 4
dtlb_rq_size 16
dtlb_wq_size 16
dtlb_pq_size 0
dtlb_mshr_size 8
dtlb_latency 1

stlb_set 128
stlb_way 12
stlb_rq_size 32
stlb_wq_size 32
stlb_pq_size 0
stlb_mshr_size 16
stlb_latency 8

l1i_size 32
l1i_set 64
l1i_way 8
l1i_rq_size 64
l1i_wq_size 64
l1i_pq_size 8
l1i_mshr_size 8
l1i_latency 1

l1d_size 32
l1d_set 64
l1d_way 8
l1d_rq_size 64
l1d_wq_size 64
l1d_pq_size 8
l1d_mshr_size 16
l1d_latency 4

l2c_size 512
l2c_set 1024
l2c_way 8
l2c_rq_size 32
l2c_wq_size 32
l2c_pq_size 16
l2c_mshr_size 32
l2c_latency 10

llc_size 2048
llc_set 2048
llc_way 16
llc_rq_size 32
llc_wq_size 32
llc_pq_size 32
llc_mshr_size 64
llc_latency 20

dram_channel_width 8
dram_wq_size 64
dram_rq_size 64
tRP 15
tRCD 15
tCAS 12.5
dram_dbus_turn_around_time 30
dram_write_high_wm 56
dram_write_low_wm 48
min_dram_writes_per_switch 16
dram_mtps 2400
dram_dbus_return_time 13


Heartbeat CPU  0 instructions:    1000002 cycles:     502361 heartbeat IPC: 1.99060 cumulative IPC: 1.99060 (Simulation time: 0 hr 0 min 2 sec) 
Heartbeat CPU  0 instructions:    2000001 cycles:     993966 heartbeat IPC: 2.03415 cumulative IPC: 2.01214 (Simulation time: 0 hr 0 min 3 sec) 
Heartbeat CPU  0 instructions:    3000001 cycles:    1490691 heartbeat IPC: 2.01319 cumulative IPC: 2.01249 (Simulation time: 0 hr 0 min 5 sec) 
Heartbeat CPU  0 instructions:    4000000 cycles:    1992315 heartbeat IPC: 1.99352 cumulative IPC: 2.00771 (Simulation time: 0 hr 0 min 6 sec) 
Heartbeat CPU  0 instructions:    5000000 cycles:    2494166 heartbeat IPC: 1.99262 cumulative IPC: 2.00468 (Simulation time: 0 hr 0 min 8 sec) 
Heartbeat CPU  0 instructions:    6000001 cycles:    2995925 heartbeat IPC: 1.99299 cumulative IPC: 2.00272 (Simulation time: 0 hr 0 min 9 sec) 
Heartbeat CPU  0 instructions:    7000000 cycles:    3482765 heartbeat IPC: 2.05406 cumulative IPC: 2.00990 (Simulation time: 0 hr 0 min 11 sec) 
Heartbeat CPU  0 instructions:    8000000 cycles:    3984519 heartbeat IPC: 1.99301 cumulative IPC: 2.00777 (Simulation time: 0 hr 0 min 12 sec) 
Heartbeat CPU  0 instructions:    9000001 cycles:    4485487 heartbeat IPC: 1.99614 cumulative IPC: 2.00647 (Simulation time: 0 hr 0 min 14 sec) 
Heartbeat CPU  0 instructions:   10000000 cycles:    4987176 heartbeat IPC: 1.99326 cumulative IPC: 2.00514 (Simulation time: 0 hr 0 min 15 sec) 
Heartbeat CPU  0 instructions:   11000001 cycles:    5481079 heartbeat IPC: 2.02469 cumulative IPC: 2.00690 (Simulation time: 0 hr 0 min 17 sec) 
Heartbeat CPU  0 instructions:   12000000 cycles:    5975819 heartbeat IPC: 2.02126 cumulative IPC: 2.00809 (Simulation time: 0 hr 0 min 18 sec) 
Heartbeat CPU  0 instructions:   13000003 cycles:    6477435 heartbeat IPC: 1.99356 cumulative IPC: 2.00697 (Simulation time: 0 hr 0 min 20 sec) 
Heartbeat CPU  0 instructions:   14000001 cycles:    6978820 heartbeat IPC: 1.99447 cumulative IPC: 2.00607 (Simulation time: 0 hr 0 min 21 sec) 
Heartbeat CPU  0 instructions:   15000003 cycles:    7480173 heartbeat IPC: 1.99461 cumulative IPC: 2.00530 (Simulation time: 0 hr 0 min 22 sec) 
Heartbeat CPU  0 instructions:   16000000 cycles:    7967345 heartbeat IPC: 2.05266 cumulative IPC: 2.00820 (Simulation time: 0 hr 0 min 24 sec) 
Heartbeat CPU  0 instructions:   17000001 cycles:    8469085 heartbeat IPC: 1.99307 cumulative IPC: 2.00730 (Simulation time: 0 hr 0 min 25 sec) 
Heartbeat CPU  0 instructions:   18000001 cycles:    8970430 heartbeat IPC: 1.99463 cumulative IPC: 2.00659 (Simulation time: 0 hr 0 min 27 sec) 
Heartbeat CPU  0 instructions:   19000003 cycles:    9471630 heartbeat IPC: 1.99522 cumulative IPC: 2.00599 (Simulation time: 0 hr 0 min 28 sec) 
Heartbeat CPU  0 instructions:   20000000 cycles:    9968206 heartbeat IPC: 2.01378 cumulative IPC: 2.00638 (Simulation time: 0 hr 0 min 30 sec) 
Heartbeat CPU  0 instructions:   21000001 cycles:   10460197 heartbeat IPC: 2.03256 cumulative IPC: 2.00761 (Simulation time: 0 hr 0 min 31 sec) 
Heartbeat CPU  0 instructions:   22000003 cycles:   10962032 heartbeat IPC: 1.99269 cumulative IPC: 2.00693 (Simulation time: 0 hr 0 min 32 sec) 
Heartbeat CPU  0 instructions:   23000001 cycles:   11464159 heartbeat IPC: 1.99152 cumulative IPC: 2.00625 (Simulation time: 0 hr 0 min 34 sec) 
Heartbeat CPU  0 instructions:   24000000 cycles:   11965698 heartbeat IPC: 1.99386 cumulative IPC: 2.00573 (Simulation time: 0 hr 0 min 35 sec) 
Heartbeat CPU  0 instructions:   25000003 cycles:   12452209 heartbeat IPC: 2.05546 cumulative IPC: 2.00768 (Simulation time: 0 hr 0 min 37 sec) 
Heartbeat CPU  0 instructions:   26000001 cycles:   12954056 heartbeat IPC: 1.99264 cumulative IPC: 2.00709 (Simulation time: 0 hr 0 min 38 sec) 
Heartbeat CPU  0 instructions:   27000003 cycles:   13456054 heartbeat IPC: 1.99204 cumulative IPC: 2.00653 (Simulation time: 0 hr 0 min 40 sec) 
Heartbeat CPU  0 instructions:   28000000 cycles:   13957908 heartbeat IPC: 1.99261 cumulative IPC: 2.00603 (Simulation time: 0 hr 0 min 41 sec) 
Heartbeat CPU  0 instructions:   29000002 cycles:   14455542 heartbeat IPC: 2.00951 cumulative IPC: 2.00615 (Simulation time: 0 hr 0 min 42 sec) 
Heartbeat CPU  0 instructions:   30000000 cycles:   14945896 heartbeat IPC: 2.03934 cumulative IPC: 2.00724 (Simulation time: 0 hr 0 min 44 sec) 
Heartbeat CPU  0 instructions:   31000002 cycles:   15447456 heartbeat IPC: 1.99378 cumulative IPC: 2.00680 (Simulation time: 0 hr 0 min 45 sec) 
Heartbeat CPU  0 instructions:   32000000 cycles:   15948892 heartbeat IPC: 1.99427 cumulative IPC: 2.00641 (Simulation time: 0 hr 0 min 47 sec) 
Heartbeat CPU  0 instructions:   33000001 cycles:   16450893 heartbeat IPC: 1.99203 cumulative IPC: 2.00597 (Simulation time: 0 hr 0 min 48 sec) 
Heartbeat CPU  0 instructions:   34000003 cycles:   16939664 heartbeat IPC: 2.04595 cumulative IPC: 2.00712 (Simulation time: 0 hr 0 min 50 sec) 
Heartbeat CPU  0 instructions:   35000000 cycles:   17438951 heartbeat IPC: 2.00285 cumulative IPC: 2.00700 (Simulation time: 0 hr 0 min 51 sec) 
Heartbeat CPU  0 instructions:   36000000 cycles:   17940216 heartbeat IPC: 1.99495 cumulative IPC: 2.00666 (Simulation time: 0 hr 0 min 53 sec) 
Heartbeat CPU  0 instructions:   37000003 cycles:   18441931 heartbeat IPC: 1.99317 cumulative IPC: 2.00630 (Simulation time: 0 hr 0 min 54 sec) 
Heartbeat CPU  0 instructions:   38000003 cycles:   18942756 heartbeat IPC: 1.99671 cumulative IPC: 2.00604 (Simulation time: 0 hr 0 min 56 sec) 
Heartbeat CPU  0 instructions:   39000003 cycles:   19430304 heartbeat IPC: 2.05108 cumulative IPC: 2.00717 (Simulation time: 0 hr 0 min 57 sec) 
Heartbeat CPU  0 instructions:   40000000 cycles:   19931396 heartbeat IPC: 1.99564 cumulative IPC: 2.00688 (Simulation time: 0 hr 0 min 59 sec) 
Heartbeat CPU  0 instructions:   41000001 cycles:   20433229 heartbeat IPC: 1.99270 cumulative IPC: 2.00654 (Simulation time: 0 hr 1 min 0 sec) 
Heartbeat CPU  0 instructions:   42000002 cycles:   20935134 heartbeat IPC: 1.99241 cumulative IPC: 2.00620 (Simulation time: 0 hr 1 min 2 sec) 
Heartbeat CPU  0 instructions:   43000003 cycles:   21426628 heartbeat IPC: 2.03461 cumulative IPC: 2.00685 (Simulation time: 0 hr 1 min 3 sec) 
Heartbeat CPU  0 instructions:   44000000 cycles:   21923534 heartbeat IPC: 2.01245 cumulative IPC: 2.00698 (Simulation time: 0 hr 1 min 5 sec) 
Heartbeat CPU  0 instructions:   45000001 cycles:   22425501 heartbeat IPC: 1.99216 cumulative IPC: 2.00664 (Simulation time: 0 hr 1 min 6 sec) 
Heartbeat CPU  0 instructions:   46000000 cycles:   22926917 heartbeat IPC: 1.99435 cumulative IPC: 2.00638 (Simulation time: 0 hr 1 min 8 sec) 
Heartbeat CPU  0 instructions:   47000002 cycles:   23428758 heartbeat IPC: 1.99267 cumulative IPC: 2.00608 (Simulation time: 0 hr 1 min 9 sec) 
Heartbeat CPU  0 instructions:   48000000 cycles:   23915374 heartbeat IPC: 2.05500 cumulative IPC: 2.00708 (Simulation time: 0 hr 1 min 11 sec) 
Heartbeat CPU  0 instructions:   49000002 cycles:   24417252 heartbeat IPC: 1.99252 cumulative IPC: 2.00678 (Simulation time: 0 hr 1 min 12 sec) 
Heartbeat CPU  0 instructions:   50000003 cycles:   24918617 heartbeat IPC: 1.99456 cumulative IPC: 2.00653 (Simulation time: 0 hr 1 min 13 sec) 
Heartbeat CPU  0 instructions:   51000003 cycles:   25419918 heartbeat IPC: 1.99481 cumulative IPC: 2.00630 (Simulation time: 0 hr 1 min 15 sec) 
Heartbeat CPU  0 instructions:   52000000 cycles:   25913421 heartbeat IPC: 2.02632 cumulative IPC: 2.00668 (Simulation time: 0 hr 1 min 16 sec) 
Heartbeat CPU  0 instructions:   53000001 cycles:   26408515 heartbeat IPC: 2.01982 cumulative IPC: 2.00693 (Simulation time: 0 hr 1 min 18 sec) 
Heartbeat CPU  0 instructions:   54000003 cycles:   26910177 heartbeat IPC: 1.99338 cumulative IPC: 2.00668 (Simulation time: 0 hr 1 min 19 sec) 
Heartbeat CPU  0 instructions:   55000003 cycles:   27411717 heartbeat IPC: 1.99386 cumulative IPC: 2.00644 (Simulation time: 0 hr 1 min 21 sec) 
Heartbeat CPU  0 instructions:   56000000 cycles:   27912929 heartbeat IPC: 1.99516 cumulative IPC: 2.00624 (Simulation time: 0 hr 1 min 22 sec) 
Heartbeat CPU  0 instructions:   57000002 cycles:   28399935 heartbeat IPC: 2.05337 cumulative IPC: 2.00705 (Simulation time: 0 hr 1 min 24 sec) 
Heartbeat CPU  0 instructions:   58000003 cycles:   28901484 heartbeat IPC: 1.99383 cumulative IPC: 2.00682 (Simulation time: 0 hr 1 min 25 sec) 
Heartbeat CPU  0 instructions:   59000001 cycles:   29403120 heartbeat IPC: 1.99347 cumulative IPC: 2.00659 (Simulation time: 0 hr 1 min 27 sec) 
Heartbeat CPU  0 instructions:   60000000 cycles:   29904252 heartbeat IPC: 1.99548 cumulative IPC: 2.00640 (Simulation time: 0 hr 1 min 28 sec) 
Heartbeat CPU  0 instructions:   61000000 cycles:   30400268 heartbeat IPC: 2.01606 cumulative IPC: 2.00656 (Simulation time: 0 hr 1 min 30 sec) 
Heartbeat CPU  0 instructions:   62000001 cycles:   30892568 heartbeat IPC: 2.03128 cumulative IPC: 2.00696 (Simulation time: 0 hr 1 min 31 sec) 
Heartbeat CPU  0 instructions:   63000001 cycles:   31394362 heartbeat IPC: 1.99285 cumulative IPC: 2.00673 (Simulation time: 0 hr 1 min 33 sec) 
Heartbeat CPU  0 instructions:   64000000 cycles:   31896420 heartbeat IPC: 1.99180 cumulative IPC: 2.00649 (Simulation time: 0 hr 1 min 34 sec) 
Heartbeat CPU  0 instructions:   65000000 cycles:   32398139 heartbeat IPC: 1.99315 cumulative IPC: 2.00629 (Simulation time: 0 hr 1 min 36 sec) 
Heartbeat CPU  0 instructions:   66000003 cycles:   32884372 heartbeat IPC: 2.05663 cumulative IPC: 2.00703 (Simulation time: 0 hr 1 min 37 sec) 
Heartbeat CPU  0 instructions:   67000000 cycles:   33386182 heartbeat IPC: 1.99278 cumulative IPC: 2.00682 (Simulation time: 0 hr 1 min 39 sec) 
Heartbeat CPU  0 instructions:   68000000 cycles:   33887970 heartbeat IPC: 1.99287 cumulative IPC: 2.00661 (Simulation time: 0 hr 1 min 41 sec) 
Heartbeat CPU  0 instructions:   69000001 cycles:   34390022 heartbeat IPC: 1.99183 cumulative IPC: 2.00640 (Simulation time: 0 hr 1 min 42 sec) 
Heartbeat CPU  0 instructions:   70000000 cycles:   34887344 heartbeat IPC: 2.01077 cumulative IPC: 2.00646 (Simulation time: 0 hr 1 min 44 sec) 
Heartbeat CPU  0 instructions:   71000001 cycles:   35377857 heartbeat IPC: 2.03868 cumulative IPC: 2.00691 (Simulation time: 0 hr 1 min 45 sec) 
Heartbeat CPU  0 instructions:   72000000 cycles:   35879748 heartbeat IPC: 1.99246 cumulative IPC: 2.00670 (Simulation time: 0 hr 1 min 47 sec) 
Heartbeat CPU  0 instructions:   73000002 cycles:   36380861 heartbeat IPC: 1.99556 cumulative IPC: 2.00655 (Simulation time: 0 hr 1 min 48 sec) 
Heartbeat CPU  0 instructions:   74000003 cycles:   36882651 heartbeat IPC: 1.99287 cumulative IPC: 2.00636 (Simulation time: 0 hr 1 min 49 sec) 
Heartbeat CPU  0 instructions:   75000001 cycles:   37371404 heartbeat IPC: 2.04602 cumulative IPC: 2.00688 (Simulation time: 0 hr 1 min 51 sec) 
Heartbeat CPU  0 instructions:   76000000 cycles:   37870779 heartbeat IPC: 2.00250 cumulative IPC: 2.00682 (Simulation time: 0 hr 1 min 53 sec) 
Heartbeat CPU  0 instructions:   77000000 cycles:   38372526 heartbeat IPC: 1.99304 cumulative IPC: 2.00664 (Simulation time: 0 hr 1 min 54 sec) 
Heartbeat CPU  0 instructions:   78000003 cycles:   38874011 heartbeat IPC: 1.99408 cumulative IPC: 2.00648 (Simulation time: 0 hr 1 min 56 sec) 
Heartbeat CPU  0 instructions:   79000001 cycles:   39374376 heartbeat IPC: 1.99854 cumulative IPC: 2.00638 (Simulation time: 0 hr 1 min 57 sec) 
Heartbeat CPU  0 instructions:   80000000 cycles:   39862905 heartbeat IPC: 2.04696 cumulative IPC: 2.00688 (Simulation time: 0 hr 1 min 59 sec) 
Heartbeat CPU  0 instructions:   81000003 cycles:   40363926 heartbeat IPC: 1.99593 cumulative IPC: 2.00674 (Simulation time: 0 hr 2 min 0 sec) 
Heartbeat CPU  0 instructions:   82000003 cycles:   40865467 heartbeat IPC: 1.99385 cumulative IPC: 2.00658 (Simulation time: 0 hr 2 min 2 sec) 
Heartbeat CPU  0 instructions:   83000001 cycles:   41367129 heartbeat IPC: 1.99337 cumulative IPC: 2.00642 (Simulation time: 0 hr 2 min 3 sec) 
Heartbeat CPU  0 instructions:   84000000 cycles:   41858367 heartbeat IPC: 2.03567 cumulative IPC: 2.00677 (Simulation time: 0 hr 2 min 4 sec) 
Heartbeat CPU  0 instructions:   85000002 cycles:   42355860 heartbeat IPC: 2.01008 cumulative IPC: 2.00681 (Simulation time: 0 hr 2 min 6 sec) 
Heartbeat CPU  0 instructions:   86000002 cycles:   42857775 heartbeat IPC: 1.99237 cumulative IPC: 2.00664 (Simulation time: 0 hr 2 min 7 sec) 
Heartbeat CPU  0 instructions:   87000002 cycles:   43359314 heartbeat IPC: 1.99386 cumulative IPC: 2.00649 (Simulation time: 0 hr 2 min 9 sec) 
Heartbeat CPU  0 instructions:   88000000 cycles:   43861206 heartbeat IPC: 1.99246 cumulative IPC: 2.00633 (Simulation time: 0 hr 2 min 10 sec) 
Heartbeat CPU  0 instructions:   89000003 cycles:   44347910 heartbeat IPC: 2.05464 cumulative IPC: 2.00686 (Simulation time: 0 hr 2 min 11 sec) 
Heartbeat CPU  0 instructions:   90000002 cycles:   44849954 heartbeat IPC: 1.99186 cumulative IPC: 2.00669 (Simulation time: 0 hr 2 min 13 sec) 
Heartbeat CPU  0 instructions:   91000000 cycles:   45351349 heartbeat IPC: 1.99443 cumulative IPC: 2.00656 (Simulation time: 0 hr 2 min 15 sec) 
Heartbeat CPU  0 instructions:   92000000 cycles:   45853006 heartbeat IPC: 1.99339 cumulative IPC: 2.00641 (Simulation time: 0 hr 2 min 16 sec) 
Heartbeat CPU  0 instructions:   93000002 cycles:   46345826 heartbeat IPC: 2.02914 cumulative IPC: 2.00665 (Simulation time: 0 hr 2 min 18 sec) 
Heartbeat CPU  0 instructions:   94000003 cycles:   46841592 heartbeat IPC: 2.01708 cumulative IPC: 2.00676 (Simulation time: 0 hr 2 min 19 sec) 
Heartbeat CPU  0 instructions:   95000003 cycles:   47343179 heartbeat IPC: 1.99367 cumulative IPC: 2.00662 (Simulation time: 0 hr 2 min 21 sec) 
Heartbeat CPU  0 instructions:   96000000 cycles:   47844819 heartbeat IPC: 1.99346 cumulative IPC: 2.00649 (Simulation time: 0 hr 2 min 22 sec) 
Heartbeat CPU  0 instructions:   97000000 cycles:   48346170 heartbeat IPC: 1.99461 cumulative IPC: 2.00636 (Simulation time: 0 hr 2 min 24 sec) 
Heartbeat CPU  0 instructions:   98000000 cycles:   48832886 heartbeat IPC: 2.05459 cumulative IPC: 2.00684 (Simulation time: 0 hr 2 min 25 sec) 
Heartbeat CPU  0 instructions:   99000002 cycles:   49334520 heartbeat IPC: 1.99349 cumulative IPC: 2.00671 (Simulation time: 0 hr 2 min 26 sec) 
Heartbeat CPU  0 instructions:  100000000 cycles:   49836109 heartbeat IPC: 1.99366 cumulative IPC: 2.00658 (Simulation time: 0 hr 2 min 28 sec) 

Warmup complete CPU  0 instructions:  100000003 cycles:   49836110 (Simulation time: 0 hr 2 min 28 sec) 

Heartbeat CPU  0 instructions:  101000001 cycles:   50693237 heartbeat IPC: 1.16669 cumulative IPC: 1.16669 (Simulation time: 0 hr 2 min 29 sec) 
Heartbeat CPU  0 instructions:  102000002 cycles:   51554319 heartbeat IPC: 1.16133 cumulative IPC: 1.16400 (Simulation time: 0 hr 2 min 31 sec) 
Heartbeat CPU  0 instructions:  103000001 cycles:   52429246 heartbeat IPC: 1.14295 cumulative IPC: 1.15690 (Simulation time: 0 hr 2 min 32 sec) 
Heartbeat CPU  0 instructions:  104000000 cycles:   53300561 heartbeat IPC: 1.14769 cumulative IPC: 1.15458 (Simulation time: 0 hr 2 min 34 sec) 
Heartbeat CPU  0 instructions:  105000003 cycles:   54148343 heartbeat IPC: 1.17955 cumulative IPC: 1.15949 (Simulation time: 0 hr 2 min 35 sec) 
Heartbeat CPU  0 instructions:  106000001 cycles:   55006538 heartbeat IPC: 1.16523 cumulative IPC: 1.16045 (Simulation time: 0 hr 2 min 37 sec) 
Heartbeat CPU  0 instructions:  107000002 cycles:   55874296 heartbeat IPC: 1.15240 cumulative IPC: 1.15929 (Simulation time: 0 hr 2 min 39 sec) 
Heartbeat CPU  0 instructions:  108000000 cycles:   56746212 heartbeat IPC: 1.14690 cumulative IPC: 1.15772 (Simulation time: 0 hr 2 min 40 sec) 
Heartbeat CPU  0 instructions:  109000003 cycles:   57616318 heartbeat IPC: 1.14929 cumulative IPC: 1.15678 (Simulation time: 0 hr 2 min 42 sec) 
Heartbeat CPU  0 instructions:  110000001 cycles:   58472926 heartbeat IPC: 1.16739 cumulative IPC: 1.15783 (Simulation time: 0 hr 2 min 43 sec) 
Heartbeat CPU  0 instructions:  111000003 cycles:   59321898 heartbeat IPC: 1.17790 cumulative IPC: 1.15963 (Simulation time: 0 hr 2 min 45 sec) 
Heartbeat CPU  0 instructions:  112000000 cycles:   60193370 heartbeat IPC: 1.14748 cumulative IPC: 1.15861 (Simulation time: 0 hr 2 min 47 sec) 
Heartbeat CPU  0 instructions:  113000002 cycles:   61061127 heartbeat IPC: 1.15240 cumulative IPC: 1.15813 (Simulation time: 0 hr 2 min 48 sec) 
Heartbeat CPU  0 instructions:  114000002 cycles:   61929646 heartbeat IPC: 1.15139 cumulative IPC: 1.15764 (Simulation time: 0 hr 2 min 50 sec) 
Heartbeat CPU  0 instructions:  115000000 cycles:   62786868 heartbeat IPC: 1.16656 cumulative IPC: 1.15823 (Simulation time: 0 hr 2 min 51 sec) 
Heartbeat CPU  0 instructions:  116000000 cycles:   63646233 heartbeat IPC: 1.16365 cumulative IPC: 1.15857 (Simulation time: 0 hr 2 min 53 sec) 
Heartbeat CPU  0 instructions:  117000002 cycles:   64511666 heartbeat IPC: 1.15549 cumulative IPC: 1.15839 (Simulation time: 0 hr 2 min 54 sec) 
Heartbeat CPU  0 instructions:  118000001 cycles:   65380888 heartbeat IPC: 1.15045 cumulative IPC: 1.15795 (Simulation time: 0 hr 2 min 56 sec) 
Heartbeat CPU  0 instructions:  119000002 cycles:   66252720 heartbeat IPC: 1.14701 cumulative IPC: 1.15736 (Simulation time: 0 hr 2 min 57 sec) 
Heartbeat CPU  0 instructions:  120000000 cycles:   67117433 heartbeat IPC: 1.15645 cumulative IPC: 1.15732 (Simulation time: 0 hr 2 min 59 sec) 
Heartbeat CPU  0 instructions:  121000001 cycles:   67977873 heartbeat IPC: 1.16220 cumulative IPC: 1.15755 (Simulation time: 0 hr 3 min 1 sec) 
Heartbeat CPU  0 instructions:  122000002 cycles:   68836352 heartbeat IPC: 1.16485 cumulative IPC: 1.15788 (Simulation time: 0 hr 3 min 2 sec) 
Heartbeat CPU  0 instructions:  123000000 cycles:   69698849 heartbeat IPC: 1.15942 cumulative IPC: 1.15795 (Simulation time: 0 hr 3 min 4 sec) 
Heartbeat CPU  0 instructions:  124000000 cycles:   70568392 heartbeat IPC: 1.15003 cumulative IPC: 1.15761 (Simulation time: 0 hr 3 min 5 sec) 
Heartbeat CPU  0 instructions:  125000000 cycles:   71441411 heartbeat IPC: 1.14545 cumulative IPC: 1.15712 (Simulation time: 0 hr 3 min 7 sec) 
Heartbeat CPU  0 instructions:  126000000 cycles:   72288010 heartbeat IPC: 1.18120 cumulative IPC: 1.15803 (Simulation time: 0 hr 3 min 8 sec) 
Heartbeat CPU  0 instructions:  127000000 cycles:   73143282 heartbeat IPC: 1.16922 cumulative IPC: 1.15844 (Simulation time: 0 hr 3 min 10 sec) 
Heartbeat CPU  0 instructions:  128000000 cycles:   74003551 heartbeat IPC: 1.16243 cumulative IPC: 1.15858 (Simulation time: 0 hr 3 min 12 sec) 
Heartbeat CPU  0 instructions:  129000002 cycles:   74870438 heartbeat IPC: 1.15356 cumulative IPC: 1.15841 (Simulation time: 0 hr 3 min 13 sec) 
Heartbeat CPU  0 instructions:  130000002 cycles:   75746018 heartbeat IPC: 1.14210 cumulative IPC: 1.15786 (Simulation time: 0 hr 3 min 15 sec) 
Heartbeat CPU  0 instructions:  131000002 cycles:   76596888 heartbeat IPC: 1.17527 cumulative IPC: 1.15841 (Simulation time: 0 hr 3 min 16 sec) 
Heartbeat CPU  0 instructions:  132000000 cycles:   77448864 heartbeat IPC: 1.17374 cumulative IPC: 1.15888 (Simulation time: 0 hr 3 min 18 sec) 
Heartbeat CPU  0 instructions:  133000000 cycles:   78309626 heartbeat IPC: 1.16176 cumulative IPC: 1.15897 (Simulation time: 0 hr 3 min 20 sec) 
Heartbeat CPU  0 instructions:  134000000 cycles:   79178237 heartbeat IPC: 1.15126 cumulative IPC: 1.15874 (Simulation time: 0 hr 3 min 21 sec) 
Heartbeat CPU  0 instructions:  135000002 cycles:   80051477 heartbeat IPC: 1.14516 cumulative IPC: 1.15835 (Simulation time: 0 hr 3 min 23 sec) 
Heartbeat CPU  0 instructions:  136000000 cycles:   80904690 heartbeat IPC: 1.17204 cumulative IPC: 1.15873 (Simulation time: 0 hr 3 min 24 sec) 
Heartbeat CPU  0 instructions:  137000001 cycles:   81756665 heartbeat IPC: 1.17374 cumulative IPC: 1.15913 (Simulation time: 0 hr 3 min 26 sec) 
Heartbeat CPU  0 instructions:  138000003 cycles:   82617237 heartbeat IPC: 1.16202 cumulative IPC: 1.15920 (Simulation time: 0 hr 3 min 28 sec) 
Heartbeat CPU  0 instructions:  139000003 cycles:   83484710 heartbeat IPC: 1.15277 cumulative IPC: 1.15904 (Simulation time: 0 hr 3 min 29 sec) 
Heartbeat CPU  0 instructions:  140000000 cycles:   84358599 heartbeat IPC: 1.14431 cumulative IPC: 1.15866 (Simulation time: 0 hr 3 min 31 sec) 
Heartbeat CPU  0 instructions:  141000003 cycles:   85214189 heartbeat IPC: 1.16879 cumulative IPC: 1.15891 (Simulation time: 0 hr 3 min 32 sec) 
Heartbeat CPU  0 instructions:  142000000 cycles:   86067203 heartbeat IPC: 1.17231 cumulative IPC: 1.15923 (Simulation time: 0 hr 3 min 34 sec) 
Heartbeat CPU  0 instructions:  143000000 cycles:   86924339 heartbeat IPC: 1.16668 cumulative IPC: 1.15940 (Simulation time: 0 hr 3 min 36 sec) 
Heartbeat CPU  0 instructions:  144000000 cycles:   87793678 heartbeat IPC: 1.15030 cumulative IPC: 1.15919 (Simulation time: 0 hr 3 min 37 sec) 
Heartbeat CPU  0 instructions:  145000002 cycles:   88670650 heartbeat IPC: 1.14029 cumulative IPC: 1.15876 (Simulation time: 0 hr 3 min 39 sec) 
Heartbeat CPU  0 instructions:  146000002 cycles:   89537127 heartbeat IPC: 1.15410 cumulative IPC: 1.15866 (Simulation time: 0 hr 3 min 41 sec) 
Heartbeat CPU  0 instructions:  147000002 cycles:   90457806 heartbeat IPC: 1.08615 cumulative IPC: 1.15702 (Simulation time: 0 hr 3 min 42 sec) 
Heartbeat CPU  0 instructions:  148000000 cycles:   91733986 heartbeat IPC: 0.78359 cumulative IPC: 1.14564 (Simulation time: 0 hr 3 min 44 sec) 
Heartbeat CPU  0 instructions:  149000002 cycles:   93014955 heartbeat IPC: 0.78066 cumulative IPC: 1.13481 (Simulation time: 0 hr 3 min 46 sec) 
Heartbeat CPU  0 instructions:  150000002 cycles:   94299287 heartbeat IPC: 0.77861 cumulative IPC: 1.12453 (Simulation time: 0 hr 3 min 48 sec) 
Heartbeat CPU  0 instructions:  151000000 cycles:   95574249 heartbeat IPC: 0.78434 cumulative IPC: 1.11504 (Simulation time: 0 hr 3 min 50 sec) 
Heartbeat CPU  0 instructions:  152000000 cycles:   96856348 heartbeat IPC: 0.77997 cumulative IPC: 1.10591 (Simulation time: 0 hr 3 min 52 sec) 
Heartbeat CPU  0 instructions:  153000003 cycles:   98143526 heartbeat IPC: 0.77690 cumulative IPC: 1.09714 (Simulation time: 0 hr 3 min 53 sec) 
Heartbeat CPU  0 instructions:  154000002 cycles:   99427909 heartbeat IPC: 0.77858 cumulative IPC: 1.08889 (Simulation time: 0 hr 3 min 55 sec) 
Heartbeat CPU  0 instructions:  155000003 cycles:  100713188 heartbeat IPC: 0.77804 cumulative IPC: 1.08104 (Simulation time: 0 hr 3 min 57 sec) 
Heartbeat CPU  0 instructions:  156000000 cycles:  101992420 heartbeat IPC: 0.78172 cumulative IPC: 1.07370 (Simulation time: 0 hr 3 min 59 sec) 
Heartbeat CPU  0 instructions:  157000003 cycles:  103285071 heartbeat IPC: 0.77361 cumulative IPC: 1.06644 (Simulation time: 0 hr 4 min 1 sec) 
Heartbeat CPU  0 instructions:  158000000 cycles:  104566662 heartbeat IPC: 0.78028 cumulative IPC: 1.05974 (Simulation time: 0 hr 4 min 2 sec) 
Heartbeat CPU  0 instructions:  159000003 cycles:  105857736 heartbeat IPC: 0.77455 cumulative IPC: 1.05316 (Simulation time: 0 hr 4 min 4 sec) 
Heartbeat CPU  0 instructions:  160000000 cycles:  107156025 heartbeat IPC: 0.77024 cumulative IPC: 1.04676 (Simulation time: 0 hr 4 min 6 sec) 
Heartbeat CPU  0 instructions:  161000000 cycles:  108440916 heartbeat IPC: 0.77828 cumulative IPC: 1.04087 (Simulation time: 0 hr 4 min 8 sec) 
Heartbeat CPU  0 instructions:  162000000 cycles:  109740538 heartbeat IPC: 0.76945 cumulative IPC: 1.03498 (Simulation time: 0 hr 4 min 9 sec) 
Heartbeat CPU  0 instructions:  163000002 cycles:  111038382 heartbeat IPC: 0.77051 cumulative IPC: 1.02937 (Simulation time: 0 hr 4 min 11 sec) 
Heartbeat CPU  0 instructions:  164000000 cycles:  112311551 heartbeat IPC: 0.78544 cumulative IPC: 1.02440 (Simulation time: 0 hr 4 min 13 sec) 
Heartbeat CPU  0 instructions:  165000001 cycles:  113600303 heartbeat IPC: 0.77595 cumulative IPC: 1.01938 (Simulation time: 0 hr 4 min 15 sec) 
Heartbeat CPU  0 instructions:  166000001 cycles:  114887442 heartbeat IPC: 0.77692 cumulative IPC: 1.01458 (Simulation time: 0 hr 4 min 16 sec) 
Heartbeat CPU  0 instructions:  167000001 cycles:  116165731 heartbeat IPC: 0.78230 cumulative IPC: 1.01011 (Simulation time: 0 hr 4 min 18 sec) 
Heartbeat CPU  0 instructions:  168000000 cycles:  117456885 heartbeat IPC: 0.77450 cumulative IPC: 1.00561 (Simulation time: 0 hr 4 min 20 sec) 
Heartbeat CPU  0 instructions:  169000002 cycles:  118744511 heartbeat IPC: 0.77662 cumulative IPC: 1.00133 (Simulation time: 0 hr 4 min 22 sec) 
Heartbeat CPU  0 instructions:  170000002 cycles:  120026597 heartbeat IPC: 0.77998 cumulative IPC: 0.99729 (Simulation time: 0 hr 4 min 23 sec) 
Heartbeat CPU  0 instructions:  171000002 cycles:  121303592 heartbeat IPC: 0.78309 cumulative IPC: 0.99346 (Simulation time: 0 hr 4 min 25 sec) 
Heartbeat CPU  0 instructions:  172000000 cycles:  122583556 heartbeat IPC: 0.78127 cumulative IPC: 0.98973 (Simulation time: 0 hr 4 min 27 sec) 
Heartbeat CPU  0 instructions:  173000002 cycles:  123857930 heartbeat IPC: 0.78470 cumulative IPC: 0.98620 (Simulation time: 0 hr 4 min 29 sec) 
Heartbeat CPU  0 instructions:  174000003 cycles:  125142098 heartbeat IPC: 0.77872 cumulative IPC: 0.98266 (Simulation time: 0 hr 4 min 30 sec) 
Heartbeat CPU  0 instructions:  175000002 cycles:  126437535 heartbeat IPC: 0.77194 cumulative IPC: 0.97909 (Simulation time: 0 hr 4 min 32 sec) 
Heartbeat CPU  0 instructions:  176000000 cycles:  127721855 heartbeat IPC: 0.77862 cumulative IPC: 0.97579 (Simulation time: 0 hr 4 min 34 sec) 
Heartbeat CPU  0 instructions:  177000003 cycles:  129024520 heartbeat IPC: 0.76766 cumulative IPC: 0.97236 (Simulation time: 0 hr 4 min 36 sec) 
Heartbeat CPU  0 instructions:  178000000 cycles:  130317310 heartbeat IPC: 0.77352 cumulative IPC: 0.96917 (Simulation time: 0 hr 4 min 37 sec) 
Heartbeat CPU  0 instructions:  179000002 cycles:  131607201 heartbeat IPC: 0.77526 cumulative IPC: 0.96611 (Simulation time: 0 hr 4 min 39 sec) 
Heartbeat CPU  0 instructions:  180000000 cycles:  132887736 heartbeat IPC: 0.78092 cumulative IPC: 0.96326 (Simulation time: 0 hr 4 min 41 sec) 
Heartbeat CPU  0 instructions:  181000003 cycles:  134174970 heartbeat IPC: 0.77686 cumulative IPC: 0.96041 (Simulation time: 0 hr 4 min 43 sec) 
Heartbeat CPU  0 instructions:  182000002 cycles:  135464814 heartbeat IPC: 0.77529 cumulative IPC: 0.95762 (Simulation time: 0 hr 4 min 44 sec) 
Heartbeat CPU  0 instructions:  183000000 cycles:  136740006 heartbeat IPC: 0.78419 cumulative IPC: 0.95508 (Simulation time: 0 hr 4 min 46 sec) 
Heartbeat CPU  0 instructions:  184000000 cycles:  138021183 heartbeat IPC: 0.78053 cumulative IPC: 0.95254 (Simulation time: 0 hr 4 min 48 sec) 
Heartbeat CPU  0 instructions:  185000003 cycles:  139308029 heartbeat IPC: 0.77710 cumulative IPC: 0.95002 (Simulation time: 0 hr 4 min 50 sec) 
Heartbeat CPU  0 instructions:  186000001 cycles:  140585316 heartbeat IPC: 0.78291 cumulative IPC: 0.94767 (Simulation time: 0 hr 4 min 52 sec) 
Heartbeat CPU  0 instructions:  187000002 cycles:  141876586 heartbeat IPC: 0.77443 cumulative IPC: 0.94524 (Simulation time: 0 hr 4 min 53 sec) 
Heartbeat CPU  0 instructions:  188000000 cycles:  143163087 heartbeat IPC: 0.77730 cumulative IPC: 0.94292 (Simulation time: 0 hr 4 min 55 sec) 
Heartbeat CPU  0 instructions:  189000001 cycles:  144453122 heartbeat IPC: 0.77517 cumulative IPC: 0.94063 (Simulation time: 0 hr 4 min 57 sec) 
Heartbeat CPU  0 instructions:  190000003 cycles:  145744207 heartbeat IPC: 0.77454 cumulative IPC: 0.93840 (Simulation time: 0 hr 4 min 59 sec) 
Heartbeat CPU  0 instructions:  191000002 cycles:  147031884 heartbeat IPC: 0.77659 cumulative IPC: 0.93625 (Simulation time: 0 hr 5 min 0 sec) 
Heartbeat CPU  0 instructions:  192000000 cycles:  148284326 heartbeat IPC: 0.79844 cumulative IPC: 0.93450 (Simulation time: 0 hr 5 min 2 sec) 
Heartbeat CPU  0 instructions:  193000003 cycles:  149182566 heartbeat IPC: 1.11329 cumulative IPC: 0.93612 (Simulation time: 0 hr 5 min 4 sec) 
Heartbeat CPU  0 instructions:  194000001 cycles:  153289494 heartbeat IPC: 0.24349 cumulative IPC: 0.90862 (Simulation time: 0 hr 5 min 7 sec) 
Heartbeat CPU  0 instructions:  195000000 cycles:  156781441 heartbeat IPC: 0.28637 cumulative IPC: 0.88830 (Simulation time: 0 hr 5 min 10 sec) 
Heartbeat CPU  0 instructions:  196000000 cycles:  157493342 heartbeat IPC: 1.40469 cumulative IPC: 0.89172 (Simulation time: 0 hr 5 min 12 sec) 
Heartbeat CPU  0 instructions:  197000000 cycles:  158204975 heartbeat IPC: 1.40522 cumulative IPC: 0.89509 (Simulation time: 0 hr 5 min 13 sec) 
Heartbeat CPU  0 instructions:  198000003 cycles:  158914815 heartbeat IPC: 1.40877 cumulative IPC: 0.89843 (Simulation time: 0 hr 5 min 15 sec) 
Heartbeat CPU  0 instructions:  199000002 cycles:  159629029 heartbeat IPC: 1.40014 cumulative IPC: 0.90170 (Simulation time: 0 hr 5 min 17 sec) 
Heartbeat CPU  0 instructions:  200000000 cycles:  160340263 heartbeat IPC: 1.40600 cumulative IPC: 0.90494 (Simulation time: 0 hr 5 min 18 sec) 
Finished CPU 0 instructions: 100000000 cycles: 110504182 cumulative IPC: 0.90494 (Simulation time: 0 hr 5 min 18 sec) 

ChampSim completed all CPUs

[ROI Statistics]
Core_0_instructions 100000000
Core_0_cycles 110504182
Core_0_IPC 0.90494

Core_0_branch_prediction_accuracy 99.15344
Core_0_branch_MPKI 0.35029
Core_0_average_ROB_occupancy_at_mispredict 249.77941

Core_0_L1D_total_access 49402491
Core_0_L1D_total_hit 47425160
Core_0_L1D_total_miss 1977331
Core_0_L1D_loads 23262577
Core_0_L1D_load_hit 22654116
Core_0_L1D_load_miss 608461
Core_0_L1D_RFOs 4518023
Core_0_L1D_RFO_hit 4203131
Core_0_L1D_RFO_miss 314892
Core_0_L1D_prefetches 21621891
Core_0_L1D_prefetch_hit 20567913
Core_0_L1D_prefetch_miss 1053978
Core_0_L1D_writebacks 0
Core_0_L1D_writeback_hit 0
Core_0_L1D_writeback_miss 0
Core_0_L1D_prefetch_requested 59191471
Core_0_L1D_prefetch_issued 57123261
Core_0_L1D_prefetch_useful 1576215
Core_0_L1D_prefetch_useless 1190037
Core_0_L1D_prefetch_late 209886
Core_0_L1D_average_miss_latency 11834202.49917

Core_0_L1I_total_access 22685767
Core_0_L1I_total_hit 22685547
Core_0_L1I_total_miss 220
Core_0_L1I_loads 22685767
Core_0_L1I_load_hit 22685547
Core_0_L1I_load_miss 220
Core_0_L1I_RFOs 0
Core_0_L1I_RFO_hit 0
Core_0_L1I_RFO_miss 0
Core_0_L1I_prefetches 0
Core_0_L1I_prefetch_hit 0
Core_0_L1I_prefetch_miss 0
Core_0_L1I_writebacks 0
Core_0_L1I_writeback_hit 0
Core_0_L1I_writeback_miss 0
Core_0_L1I_prefetch_requested 0
Core_0_L1I_prefetch_issued 0
Core_0_L1I_prefetch_useful 0
Core_0_L1I_prefetch_useless 0
Core_0_L1I_prefetch_late 0
Core_0_L1I_average_miss_latency 198.57727

Core_0_L2C_total_access 3638581
Core_0_L2C_total_hit 2540289
Core_0_L2C_total_miss 1098292
Core_0_L2C_loads 400414
Core_0_L2C_load_hit 333164
Core_0_L2C_load_miss 67250
Core_0_L2C_RFOs 314737
Core_0_L2C_RFO_hit 129408
Core_0_L2C_RFO_miss 185329
Core_0_L2C_prefetches 2364489
Core_0_L2C_prefetch_hit 1518887
Core_0_L2C_prefetch_miss 845602
Core_0_L2C_writebacks 558941
Core_0_L2C_writeback_hit 558830
Core_0_L2C_writeback_miss 111
Core_0_L2C_prefetch_requested 4021032
Core_0_L2C_prefetch_issued 3961685
Core_0_L2C_prefetch_useful 164160
Core_0_L2C_prefetch_useless 1205072
Core_0_L2C_prefetch_late 2836
Core_0_L2C_average_miss_latency 261.97008

Core_0_LLC_total_access 1505821
Core_0_LLC_total_hit 511261
Core_0_LLC_total_miss 994560
Core_0_LLC_loads 64430
Core_0_LLC_load_hit 16354
Core_0_LLC_load_miss 48076
Core_0_LLC_RFOs 185328
Core_0_LLC_RFO_hit 9842
Core_0_LLC_RFO_miss 175486
Core_0_LLC_prefetches 848422
Core_0_LLC_prefetch_hit 78884
Core_0_LLC_prefetch_miss 769538
Core_0_LLC_writebacks 407641
Core_0_LLC_writeback_hit 406181
Core_0_LLC_writeback_miss 1460
Core_0_LLC_prefetch_requested 0
Core_0_LLC_prefetch_issued 0
Core_0_LLC_prefetch_useful 34584
Core_0_LLC_prefetch_useless 1072423
Core_0_LLC_prefetch_late 0
Core_0_LLC_average_miss_latency 255.04466

Core_0_major_page_fault 0
Core_0_minor_page_fault 15627

CPU 0 L1D next line prefetcher final stats
CPU 0 L2C next line prefetcher final stats
Channel_0_RQ_row_buffer_hit 341186
Channel_0_RQ_row_buffer_miss 651914
Channel_0_WQ_row_buffer_hit 113184
Channel_0_WQ_row_buffer_miss 273033
Channel_0_WQ_full 0
Channel_0_dbus_congested 498656

avg_congested_cycle 9
