*************************************************
   ChampSim Multicore Out-of-Order Simulator
   Last compiled: Dec 23 2023 13:50:49
*************************************************

trace_0 ./test_trace/437.leslie3d-134B.champsimtrace.xz
CPU 0 L2C IP-based stride prefetcher
Initialize DRRIP state
Assign rand_sets[0]: 454  LLC: 2048
rand_sets[0]: 454
Assign rand_sets[1]: 1662  LLC: 2048
rand_sets[1]: 1662
Assign rand_sets[2]: 1921  LLC: 2048
rand_sets[2]: 1921
Assign rand_sets[3]: 1131  LLC: 2048
rand_sets[3]: 1131
Assign rand_sets[4]: 331  LLC: 2048
rand_sets[4]: 331
Assign rand_sets[5]: 1531  LLC: 2048
rand_sets[5]: 1531
Assign rand_sets[6]: 482  LLC: 2048
rand_sets[6]: 482
Assign rand_sets[7]: 1275  LLC: 2048
rand_sets[7]: 1275
Assign rand_sets[8]: 1876  LLC: 2048
rand_sets[8]: 1876
Assign rand_sets[9]: 2038  LLC: 2048
rand_sets[9]: 2038
Assign rand_sets[10]: 701  LLC: 2048
rand_sets[10]: 701
Assign rand_sets[11]: 479  LLC: 2048
rand_sets[11]: 479
Assign rand_sets[12]: 892  LLC: 2048
rand_sets[12]: 892
Assign rand_sets[13]: 1820  LLC: 2048
rand_sets[13]: 1820
Assign rand_sets[14]: 1505  LLC: 2048
rand_sets[14]: 1505
Assign rand_sets[15]: 1159  LLC: 2048
rand_sets[15]: 1159
Assign rand_sets[16]: 513  LLC: 2048
rand_sets[16]: 513
Assign rand_sets[17]: 703  LLC: 2048
rand_sets[17]: 703
Assign rand_sets[18]: 561  LLC: 2048
rand_sets[18]: 561
Assign rand_sets[19]: 990  LLC: 2048
rand_sets[19]: 990
Assign rand_sets[20]: 342  LLC: 2048
rand_sets[20]: 342
Assign rand_sets[21]: 882  LLC: 2048
rand_sets[21]: 882
Assign rand_sets[22]: 15  LLC: 2048
rand_sets[22]: 15
Assign rand_sets[23]: 71  LLC: 2048
rand_sets[23]: 71
Assign rand_sets[24]: 1127  LLC: 2048
rand_sets[24]: 1127
Assign rand_sets[25]: 1382  LLC: 2048
rand_sets[25]: 1382
Assign rand_sets[26]: 647  LLC: 2048
rand_sets[26]: 647
Assign rand_sets[27]: 857  LLC: 2048
rand_sets[27]: 857
Assign rand_sets[28]: 1450  LLC: 2048
rand_sets[28]: 1450
Assign rand_sets[29]: 1160  LLC: 2048
rand_sets[29]: 1160
Assign rand_sets[30]: 1852  LLC: 2048
rand_sets[30]: 1852
Assign rand_sets[31]: 1881  LLC: 2048
rand_sets[31]: 1881
Assign rand_sets[32]: 1770  LLC: 2048
rand_sets[32]: 1770
Assign rand_sets[33]: 1622  LLC: 2048
rand_sets[33]: 1622
Assign rand_sets[34]: 275  LLC: 2048
rand_sets[34]: 275
Assign rand_sets[35]: 635  LLC: 2048
rand_sets[35]: 635
Assign rand_sets[36]: 466  LLC: 2048
rand_sets[36]: 466
Assign rand_sets[37]: 1413  LLC: 2048
rand_sets[37]: 1413
Assign rand_sets[38]: 417  LLC: 2048
rand_sets[38]: 417
Assign rand_sets[39]: 472  LLC: 2048
rand_sets[39]: 472
Assign rand_sets[40]: 1340  LLC: 2048
rand_sets[40]: 1340
Assign rand_sets[41]: 852  LLC: 2048
rand_sets[41]: 852
Assign rand_sets[42]: 1365  LLC: 2048
rand_sets[42]: 1365
Assign rand_sets[43]: 47  LLC: 2048
rand_sets[43]: 47
Assign rand_sets[44]: 823  LLC: 2048
rand_sets[44]: 823
Assign rand_sets[45]: 686  LLC: 2048
rand_sets[45]: 686
Assign rand_sets[46]: 1637  LLC: 2048
rand_sets[46]: 1637
Assign rand_sets[47]: 1115  LLC: 2048
rand_sets[47]: 1115
Assign rand_sets[48]: 986  LLC: 2048
rand_sets[48]: 986
Assign rand_sets[49]: 258  LLC: 2048
rand_sets[49]: 258
Assign rand_sets[50]: 633  LLC: 2048
rand_sets[50]: 633
Assign rand_sets[51]: 920  LLC: 2048
rand_sets[51]: 920
Assign rand_sets[52]: 204  LLC: 2048
rand_sets[52]: 204
Assign rand_sets[53]: 227  LLC: 2048
rand_sets[53]: 227
Assign rand_sets[54]: 1818  LLC: 2048
rand_sets[54]: 1818
Assign rand_sets[55]: 886  LLC: 2048
rand_sets[55]: 886
Assign rand_sets[56]: 1422  LLC: 2048
rand_sets[56]: 1422
Assign rand_sets[57]: 607  LLC: 2048
rand_sets[57]: 607
Assign rand_sets[58]: 217  LLC: 2048
rand_sets[58]: 217
Assign rand_sets[59]: 1945  LLC: 2048
rand_sets[59]: 1945
Assign rand_sets[60]: 143  LLC: 2048
rand_sets[60]: 143
Assign rand_sets[61]: 1311  LLC: 2048
rand_sets[61]: 1311
Assign rand_sets[62]: 319  LLC: 2048
rand_sets[62]: 319
Assign rand_sets[63]: 1846  LLC: 2048
rand_sets[63]: 1846
LLC Next Line Prefetcher
warmup_instructions 100000000
simulation_instructions 100000000
champsim_seed 218

num_cpus 1
cpu_freq 4000
dram_io_freq 2400
page_size 4096
block_size 64
max_read_per_cycle 8
max_fill_per_cycle 1
dram_channels 1
dram_ranks 1
dram_banks 8
dram_rows 65536
dram_columns 128
dram_row_size 8
dram_size 4096
dram_pages 1048576

fetch_width 6
decode_width 6
exec_width 4
lq_width 2
sq_width 2
retire_width 4
scheduler_size 128
branch_mispredict_penalty 20
rob_size 256
lq_size 72
sq_size 56
num_instr_destinations_sparc 4
num_instr_destinations 2
num_instr_sources 4

itlb_set 16
itlb_way 8
itlb_rq_size 16
itlb_wq_size 16
itlb_pq_size 0
itlb_mshr_size 8
itlb_latency 1

dtlb_set 16
dtlb_way 4
dtlb_rq_size 16
dtlb_wq_size 16
dtlb_pq_size 0
dtlb_mshr_size 8
dtlb_latency 1

stlb_set 128
stlb_way 12
stlb_rq_size 32
stlb_wq_size 32
stlb_pq_size 0
stlb_mshr_size 16
stlb_latency 8

l1i_size 32
l1i_set 64
l1i_way 8
l1i_rq_size 64
l1i_wq_size 64
l1i_pq_size 8
l1i_mshr_size 8
l1i_latency 1

l1d_size 32
l1d_set 64
l1d_way 8
l1d_rq_size 64
l1d_wq_size 64
l1d_pq_size 8
l1d_mshr_size 16
l1d_latency 4

l2c_size 512
l2c_set 1024
l2c_way 8
l2c_rq_size 32
l2c_wq_size 32
l2c_pq_size 16
l2c_mshr_size 32
l2c_latency 10

llc_size 2048
llc_set 2048
llc_way 16
llc_rq_size 32
llc_wq_size 32
llc_pq_size 32
llc_mshr_size 64
llc_latency 20

dram_channel_width 8
dram_wq_size 64
dram_rq_size 64
tRP 15
tRCD 15
tCAS 12.5
dram_dbus_turn_around_time 30
dram_write_high_wm 56
dram_write_low_wm 48
min_dram_writes_per_switch 16
dram_mtps 2400
dram_dbus_return_time 13


Heartbeat CPU  0 instructions:    1000002 cycles:     502248 heartbeat IPC: 1.99105 cumulative IPC: 1.99105 (Simulation time: 0 hr 0 min 2 sec) 
Heartbeat CPU  0 instructions:    2000001 cycles:     993697 heartbeat IPC: 2.03480 cumulative IPC: 2.01269 (Simulation time: 0 hr 0 min 3 sec) 
Heartbeat CPU  0 instructions:    3000001 cycles:    1490344 heartbeat IPC: 2.01350 cumulative IPC: 2.01296 (Simulation time: 0 hr 0 min 5 sec) 
Heartbeat CPU  0 instructions:    4000000 cycles:    1992076 heartbeat IPC: 1.99309 cumulative IPC: 2.00796 (Simulation time: 0 hr 0 min 6 sec) 
Heartbeat CPU  0 instructions:    5000000 cycles:    2494047 heartbeat IPC: 1.99215 cumulative IPC: 2.00477 (Simulation time: 0 hr 0 min 7 sec) 
Heartbeat CPU  0 instructions:    6000001 cycles:    2995875 heartbeat IPC: 1.99272 cumulative IPC: 2.00275 (Simulation time: 0 hr 0 min 9 sec) 
Heartbeat CPU  0 instructions:    7000000 cycles:    3482576 heartbeat IPC: 2.05465 cumulative IPC: 2.01001 (Simulation time: 0 hr 0 min 10 sec) 
Heartbeat CPU  0 instructions:    8000000 cycles:    3984225 heartbeat IPC: 1.99343 cumulative IPC: 2.00792 (Simulation time: 0 hr 0 min 12 sec) 
Heartbeat CPU  0 instructions:    9000001 cycles:    4485342 heartbeat IPC: 1.99554 cumulative IPC: 2.00654 (Simulation time: 0 hr 0 min 13 sec) 
Heartbeat CPU  0 instructions:   10000000 cycles:    4987289 heartbeat IPC: 1.99224 cumulative IPC: 2.00510 (Simulation time: 0 hr 0 min 15 sec) 
Heartbeat CPU  0 instructions:   11000001 cycles:    5481135 heartbeat IPC: 2.02492 cumulative IPC: 2.00688 (Simulation time: 0 hr 0 min 16 sec) 
Heartbeat CPU  0 instructions:   12000000 cycles:    5975947 heartbeat IPC: 2.02097 cumulative IPC: 2.00805 (Simulation time: 0 hr 0 min 17 sec) 
Heartbeat CPU  0 instructions:   13000003 cycles:    6477461 heartbeat IPC: 1.99397 cumulative IPC: 2.00696 (Simulation time: 0 hr 0 min 19 sec) 
Heartbeat CPU  0 instructions:   14000001 cycles:    6978951 heartbeat IPC: 1.99405 cumulative IPC: 2.00603 (Simulation time: 0 hr 0 min 20 sec) 
Heartbeat CPU  0 instructions:   15000003 cycles:    7480654 heartbeat IPC: 1.99322 cumulative IPC: 2.00517 (Simulation time: 0 hr 0 min 21 sec) 
Heartbeat CPU  0 instructions:   16000000 cycles:    7967710 heartbeat IPC: 2.05315 cumulative IPC: 2.00811 (Simulation time: 0 hr 0 min 23 sec) 
Heartbeat CPU  0 instructions:   17000001 cycles:    8469369 heartbeat IPC: 1.99339 cumulative IPC: 2.00723 (Simulation time: 0 hr 0 min 24 sec) 
Heartbeat CPU  0 instructions:   18000001 cycles:    8970716 heartbeat IPC: 1.99463 cumulative IPC: 2.00653 (Simulation time: 0 hr 0 min 25 sec) 
Heartbeat CPU  0 instructions:   19000003 cycles:    9471781 heartbeat IPC: 1.99575 cumulative IPC: 2.00596 (Simulation time: 0 hr 0 min 27 sec) 
Heartbeat CPU  0 instructions:   20000000 cycles:    9968526 heartbeat IPC: 2.01310 cumulative IPC: 2.00631 (Simulation time: 0 hr 0 min 28 sec) 
Heartbeat CPU  0 instructions:   21000001 cycles:   10460495 heartbeat IPC: 2.03265 cumulative IPC: 2.00755 (Simulation time: 0 hr 0 min 29 sec) 
Heartbeat CPU  0 instructions:   22000003 cycles:   10962477 heartbeat IPC: 1.99211 cumulative IPC: 2.00685 (Simulation time: 0 hr 0 min 31 sec) 
Heartbeat CPU  0 instructions:   23000001 cycles:   11464643 heartbeat IPC: 1.99137 cumulative IPC: 2.00617 (Simulation time: 0 hr 0 min 32 sec) 
Heartbeat CPU  0 instructions:   24000000 cycles:   11966011 heartbeat IPC: 1.99454 cumulative IPC: 2.00568 (Simulation time: 0 hr 0 min 33 sec) 
Heartbeat CPU  0 instructions:   25000003 cycles:   12452602 heartbeat IPC: 2.05512 cumulative IPC: 2.00761 (Simulation time: 0 hr 0 min 35 sec) 
Heartbeat CPU  0 instructions:   26000001 cycles:   12954499 heartbeat IPC: 1.99244 cumulative IPC: 2.00702 (Simulation time: 0 hr 0 min 36 sec) 
Heartbeat CPU  0 instructions:   27000003 cycles:   13456607 heartbeat IPC: 1.99161 cumulative IPC: 2.00645 (Simulation time: 0 hr 0 min 37 sec) 
Heartbeat CPU  0 instructions:   28000000 cycles:   13958449 heartbeat IPC: 1.99265 cumulative IPC: 2.00595 (Simulation time: 0 hr 0 min 38 sec) 
Heartbeat CPU  0 instructions:   29000002 cycles:   14455829 heartbeat IPC: 2.01054 cumulative IPC: 2.00611 (Simulation time: 0 hr 0 min 40 sec) 
Heartbeat CPU  0 instructions:   30000000 cycles:   14946370 heartbeat IPC: 2.03856 cumulative IPC: 2.00718 (Simulation time: 0 hr 0 min 41 sec) 
Heartbeat CPU  0 instructions:   31000002 cycles:   15448153 heartbeat IPC: 1.99290 cumulative IPC: 2.00671 (Simulation time: 0 hr 0 min 42 sec) 
Heartbeat CPU  0 instructions:   32000000 cycles:   15949590 heartbeat IPC: 1.99426 cumulative IPC: 2.00632 (Simulation time: 0 hr 0 min 44 sec) 
Heartbeat CPU  0 instructions:   33000001 cycles:   16451530 heartbeat IPC: 1.99227 cumulative IPC: 2.00589 (Simulation time: 0 hr 0 min 45 sec) 
Heartbeat CPU  0 instructions:   34000003 cycles:   16939929 heartbeat IPC: 2.04751 cumulative IPC: 2.00709 (Simulation time: 0 hr 0 min 46 sec) 
Heartbeat CPU  0 instructions:   35000000 cycles:   17439401 heartbeat IPC: 2.00211 cumulative IPC: 2.00695 (Simulation time: 0 hr 0 min 48 sec) 
Heartbeat CPU  0 instructions:   36000000 cycles:   17940820 heartbeat IPC: 1.99434 cumulative IPC: 2.00660 (Simulation time: 0 hr 0 min 49 sec) 
Heartbeat CPU  0 instructions:   37000003 cycles:   18442609 heartbeat IPC: 1.99288 cumulative IPC: 2.00622 (Simulation time: 0 hr 0 min 50 sec) 
Heartbeat CPU  0 instructions:   38000003 cycles:   18943329 heartbeat IPC: 1.99712 cumulative IPC: 2.00598 (Simulation time: 0 hr 0 min 52 sec) 
Heartbeat CPU  0 instructions:   39000003 cycles:   19430499 heartbeat IPC: 2.05267 cumulative IPC: 2.00715 (Simulation time: 0 hr 0 min 53 sec) 
Heartbeat CPU  0 instructions:   40000000 cycles:   19931691 heartbeat IPC: 1.99524 cumulative IPC: 2.00685 (Simulation time: 0 hr 0 min 54 sec) 
Heartbeat CPU  0 instructions:   41000001 cycles:   20433674 heartbeat IPC: 1.99210 cumulative IPC: 2.00649 (Simulation time: 0 hr 0 min 56 sec) 
Heartbeat CPU  0 instructions:   42000002 cycles:   20935651 heartbeat IPC: 1.99213 cumulative IPC: 2.00615 (Simulation time: 0 hr 0 min 57 sec) 
Heartbeat CPU  0 instructions:   43000003 cycles:   21427081 heartbeat IPC: 2.03488 cumulative IPC: 2.00681 (Simulation time: 0 hr 0 min 58 sec) 
Heartbeat CPU  0 instructions:   44000000 cycles:   21923887 heartbeat IPC: 2.01285 cumulative IPC: 2.00694 (Simulation time: 0 hr 1 min 0 sec) 
Heartbeat CPU  0 instructions:   45000001 cycles:   22425799 heartbeat IPC: 1.99238 cumulative IPC: 2.00662 (Simulation time: 0 hr 1 min 1 sec) 
Heartbeat CPU  0 instructions:   46000000 cycles:   22927392 heartbeat IPC: 1.99365 cumulative IPC: 2.00633 (Simulation time: 0 hr 1 min 3 sec) 
Heartbeat CPU  0 instructions:   47000002 cycles:   23429311 heartbeat IPC: 1.99236 cumulative IPC: 2.00603 (Simulation time: 0 hr 1 min 4 sec) 
Heartbeat CPU  0 instructions:   48000000 cycles:   23915850 heartbeat IPC: 2.05533 cumulative IPC: 2.00704 (Simulation time: 0 hr 1 min 5 sec) 
Heartbeat CPU  0 instructions:   49000002 cycles:   24417636 heartbeat IPC: 1.99289 cumulative IPC: 2.00675 (Simulation time: 0 hr 1 min 7 sec) 
Heartbeat CPU  0 instructions:   50000003 cycles:   24918879 heartbeat IPC: 1.99504 cumulative IPC: 2.00651 (Simulation time: 0 hr 1 min 8 sec) 
Heartbeat CPU  0 instructions:   51000003 cycles:   25420415 heartbeat IPC: 1.99387 cumulative IPC: 2.00626 (Simulation time: 0 hr 1 min 9 sec) 
Heartbeat CPU  0 instructions:   52000000 cycles:   25913941 heartbeat IPC: 2.02623 cumulative IPC: 2.00664 (Simulation time: 0 hr 1 min 11 sec) 
Heartbeat CPU  0 instructions:   53000001 cycles:   26408921 heartbeat IPC: 2.02029 cumulative IPC: 2.00690 (Simulation time: 0 hr 1 min 12 sec) 
Heartbeat CPU  0 instructions:   54000003 cycles:   26910516 heartbeat IPC: 1.99364 cumulative IPC: 2.00665 (Simulation time: 0 hr 1 min 13 sec) 
Heartbeat CPU  0 instructions:   55000003 cycles:   27412000 heartbeat IPC: 1.99408 cumulative IPC: 2.00642 (Simulation time: 0 hr 1 min 15 sec) 
Heartbeat CPU  0 instructions:   56000000 cycles:   27913397 heartbeat IPC: 1.99442 cumulative IPC: 2.00621 (Simulation time: 0 hr 1 min 16 sec) 
Heartbeat CPU  0 instructions:   57000002 cycles:   28400379 heartbeat IPC: 2.05347 cumulative IPC: 2.00702 (Simulation time: 0 hr 1 min 17 sec) 
Heartbeat CPU  0 instructions:   58000003 cycles:   28901991 heartbeat IPC: 1.99357 cumulative IPC: 2.00678 (Simulation time: 0 hr 1 min 19 sec) 
Heartbeat CPU  0 instructions:   59000001 cycles:   29403649 heartbeat IPC: 1.99339 cumulative IPC: 2.00655 (Simulation time: 0 hr 1 min 20 sec) 
Heartbeat CPU  0 instructions:   60000000 cycles:   29904671 heartbeat IPC: 1.99592 cumulative IPC: 2.00638 (Simulation time: 0 hr 1 min 21 sec) 
Heartbeat CPU  0 instructions:   61000000 cycles:   30400589 heartbeat IPC: 2.01646 cumulative IPC: 2.00654 (Simulation time: 0 hr 1 min 23 sec) 
Heartbeat CPU  0 instructions:   62000001 cycles:   30892963 heartbeat IPC: 2.03098 cumulative IPC: 2.00693 (Simulation time: 0 hr 1 min 24 sec) 
Heartbeat CPU  0 instructions:   63000001 cycles:   31394817 heartbeat IPC: 1.99261 cumulative IPC: 2.00670 (Simulation time: 0 hr 1 min 25 sec) 
Heartbeat CPU  0 instructions:   64000000 cycles:   31896974 heartbeat IPC: 1.99141 cumulative IPC: 2.00646 (Simulation time: 0 hr 1 min 27 sec) 
Heartbeat CPU  0 instructions:   65000000 cycles:   32398443 heartbeat IPC: 1.99414 cumulative IPC: 2.00627 (Simulation time: 0 hr 1 min 28 sec) 
Heartbeat CPU  0 instructions:   66000003 cycles:   32884668 heartbeat IPC: 2.05667 cumulative IPC: 2.00701 (Simulation time: 0 hr 1 min 29 sec) 
Heartbeat CPU  0 instructions:   67000000 cycles:   33386749 heartbeat IPC: 1.99170 cumulative IPC: 2.00678 (Simulation time: 0 hr 1 min 31 sec) 
Heartbeat CPU  0 instructions:   68000000 cycles:   33888636 heartbeat IPC: 1.99248 cumulative IPC: 2.00657 (Simulation time: 0 hr 1 min 32 sec) 
Heartbeat CPU  0 instructions:   69000001 cycles:   34390757 heartbeat IPC: 1.99155 cumulative IPC: 2.00635 (Simulation time: 0 hr 1 min 33 sec) 
Heartbeat CPU  0 instructions:   70000000 cycles:   34887846 heartbeat IPC: 2.01171 cumulative IPC: 2.00643 (Simulation time: 0 hr 1 min 35 sec) 
Heartbeat CPU  0 instructions:   71000001 cycles:   35378216 heartbeat IPC: 2.03928 cumulative IPC: 2.00688 (Simulation time: 0 hr 1 min 36 sec) 
Heartbeat CPU  0 instructions:   72000000 cycles:   35880451 heartbeat IPC: 1.99110 cumulative IPC: 2.00666 (Simulation time: 0 hr 1 min 37 sec) 
Heartbeat CPU  0 instructions:   73000002 cycles:   36381766 heartbeat IPC: 1.99476 cumulative IPC: 2.00650 (Simulation time: 0 hr 1 min 39 sec) 
Heartbeat CPU  0 instructions:   74000003 cycles:   36883615 heartbeat IPC: 1.99263 cumulative IPC: 2.00631 (Simulation time: 0 hr 1 min 40 sec) 
Heartbeat CPU  0 instructions:   75000001 cycles:   37372084 heartbeat IPC: 2.04721 cumulative IPC: 2.00685 (Simulation time: 0 hr 1 min 42 sec) 
Heartbeat CPU  0 instructions:   76000000 cycles:   37871491 heartbeat IPC: 2.00237 cumulative IPC: 2.00679 (Simulation time: 0 hr 1 min 43 sec) 
Heartbeat CPU  0 instructions:   77000000 cycles:   38373438 heartbeat IPC: 1.99224 cumulative IPC: 2.00660 (Simulation time: 0 hr 1 min 45 sec) 
Heartbeat CPU  0 instructions:   78000003 cycles:   38875022 heartbeat IPC: 1.99369 cumulative IPC: 2.00643 (Simulation time: 0 hr 1 min 46 sec) 
Heartbeat CPU  0 instructions:   79000001 cycles:   39375359 heartbeat IPC: 1.99865 cumulative IPC: 2.00633 (Simulation time: 0 hr 1 min 47 sec) 
Heartbeat CPU  0 instructions:   80000000 cycles:   39863871 heartbeat IPC: 2.04703 cumulative IPC: 2.00683 (Simulation time: 0 hr 1 min 49 sec) 
Heartbeat CPU  0 instructions:   81000003 cycles:   40364802 heartbeat IPC: 1.99629 cumulative IPC: 2.00670 (Simulation time: 0 hr 1 min 50 sec) 
Heartbeat CPU  0 instructions:   82000003 cycles:   40866399 heartbeat IPC: 1.99363 cumulative IPC: 2.00654 (Simulation time: 0 hr 1 min 51 sec) 
Heartbeat CPU  0 instructions:   83000001 cycles:   41368304 heartbeat IPC: 1.99240 cumulative IPC: 2.00637 (Simulation time: 0 hr 1 min 53 sec) 
Heartbeat CPU  0 instructions:   84000000 cycles:   41859530 heartbeat IPC: 2.03572 cumulative IPC: 2.00671 (Simulation time: 0 hr 1 min 54 sec) 
Heartbeat CPU  0 instructions:   85000002 cycles:   42357010 heartbeat IPC: 2.01014 cumulative IPC: 2.00675 (Simulation time: 0 hr 1 min 56 sec) 
Heartbeat CPU  0 instructions:   86000002 cycles:   42858847 heartbeat IPC: 1.99268 cumulative IPC: 2.00659 (Simulation time: 0 hr 1 min 57 sec) 
Heartbeat CPU  0 instructions:   87000002 cycles:   43360519 heartbeat IPC: 1.99333 cumulative IPC: 2.00643 (Simulation time: 0 hr 1 min 58 sec) 
Heartbeat CPU  0 instructions:   88000000 cycles:   43862468 heartbeat IPC: 1.99223 cumulative IPC: 2.00627 (Simulation time: 0 hr 2 min 0 sec) 
Heartbeat CPU  0 instructions:   89000003 cycles:   44349168 heartbeat IPC: 2.05466 cumulative IPC: 2.00680 (Simulation time: 0 hr 2 min 1 sec) 
Heartbeat CPU  0 instructions:   90000002 cycles:   44851296 heartbeat IPC: 1.99152 cumulative IPC: 2.00663 (Simulation time: 0 hr 2 min 2 sec) 
Heartbeat CPU  0 instructions:   91000000 cycles:   45352707 heartbeat IPC: 1.99437 cumulative IPC: 2.00650 (Simulation time: 0 hr 2 min 4 sec) 
Heartbeat CPU  0 instructions:   92000000 cycles:   45854461 heartbeat IPC: 1.99301 cumulative IPC: 2.00635 (Simulation time: 0 hr 2 min 5 sec) 
Heartbeat CPU  0 instructions:   93000002 cycles:   46347406 heartbeat IPC: 2.02863 cumulative IPC: 2.00658 (Simulation time: 0 hr 2 min 7 sec) 
Heartbeat CPU  0 instructions:   94000003 cycles:   46843171 heartbeat IPC: 2.01709 cumulative IPC: 2.00670 (Simulation time: 0 hr 2 min 8 sec) 
Heartbeat CPU  0 instructions:   95000003 cycles:   47344768 heartbeat IPC: 1.99363 cumulative IPC: 2.00656 (Simulation time: 0 hr 2 min 9 sec) 
Heartbeat CPU  0 instructions:   96000000 cycles:   47846490 heartbeat IPC: 1.99313 cumulative IPC: 2.00642 (Simulation time: 0 hr 2 min 11 sec) 
Heartbeat CPU  0 instructions:   97000000 cycles:   48347891 heartbeat IPC: 1.99441 cumulative IPC: 2.00629 (Simulation time: 0 hr 2 min 12 sec) 
Heartbeat CPU  0 instructions:   98000000 cycles:   48834597 heartbeat IPC: 2.05463 cumulative IPC: 2.00677 (Simulation time: 0 hr 2 min 13 sec) 
Heartbeat CPU  0 instructions:   99000002 cycles:   49336426 heartbeat IPC: 1.99271 cumulative IPC: 2.00663 (Simulation time: 0 hr 2 min 15 sec) 
Heartbeat CPU  0 instructions:  100000000 cycles:   49838113 heartbeat IPC: 1.99327 cumulative IPC: 2.00650 (Simulation time: 0 hr 2 min 16 sec) 

Warmup complete CPU  0 instructions:  100000003 cycles:   49838114 (Simulation time: 0 hr 2 min 16 sec) 

Heartbeat CPU  0 instructions:  101000001 cycles:   50685846 heartbeat IPC: 1.17962 cumulative IPC: 1.17962 (Simulation time: 0 hr 2 min 18 sec) 
Heartbeat CPU  0 instructions:  102000002 cycles:   51540840 heartbeat IPC: 1.16960 cumulative IPC: 1.17459 (Simulation time: 0 hr 2 min 19 sec) 
Heartbeat CPU  0 instructions:  103000002 cycles:   52406849 heartbeat IPC: 1.15472 cumulative IPC: 1.16789 (Simulation time: 0 hr 2 min 21 sec) 
Heartbeat CPU  0 instructions:  104000000 cycles:   53269767 heartbeat IPC: 1.15886 cumulative IPC: 1.16562 (Simulation time: 0 hr 2 min 22 sec) 
Heartbeat CPU  0 instructions:  105000000 cycles:   54110336 heartbeat IPC: 1.18967 cumulative IPC: 1.17035 (Simulation time: 0 hr 2 min 24 sec) 
Heartbeat CPU  0 instructions:  106000001 cycles:   54956241 heartbeat IPC: 1.18217 cumulative IPC: 1.17230 (Simulation time: 0 hr 2 min 25 sec) 
Heartbeat CPU  0 instructions:  107000002 cycles:   55818792 heartbeat IPC: 1.15935 cumulative IPC: 1.17044 (Simulation time: 0 hr 2 min 27 sec) 
Heartbeat CPU  0 instructions:  108000000 cycles:   56677507 heartbeat IPC: 1.16453 cumulative IPC: 1.16969 (Simulation time: 0 hr 2 min 28 sec) 
Heartbeat CPU  0 instructions:  109000003 cycles:   57541159 heartbeat IPC: 1.15788 cumulative IPC: 1.16837 (Simulation time: 0 hr 2 min 30 sec) 
Heartbeat CPU  0 instructions:  110000001 cycles:   58388576 heartbeat IPC: 1.18005 cumulative IPC: 1.16953 (Simulation time: 0 hr 2 min 32 sec) 
Heartbeat CPU  0 instructions:  111000003 cycles:   59229796 heartbeat IPC: 1.18875 cumulative IPC: 1.17125 (Simulation time: 0 hr 2 min 33 sec) 
Heartbeat CPU  0 instructions:  112000000 cycles:   60091062 heartbeat IPC: 1.16108 cumulative IPC: 1.17039 (Simulation time: 0 hr 2 min 35 sec) 
Heartbeat CPU  0 instructions:  113000001 cycles:   60947895 heartbeat IPC: 1.16709 cumulative IPC: 1.17014 (Simulation time: 0 hr 2 min 36 sec) 
Heartbeat CPU  0 instructions:  114000002 cycles:   61808840 heartbeat IPC: 1.16152 cumulative IPC: 1.16952 (Simulation time: 0 hr 2 min 38 sec) 
Heartbeat CPU  0 instructions:  115000000 cycles:   62661334 heartbeat IPC: 1.17303 cumulative IPC: 1.16975 (Simulation time: 0 hr 2 min 39 sec) 
Heartbeat CPU  0 instructions:  116000000 cycles:   63508917 heartbeat IPC: 1.17983 cumulative IPC: 1.17038 (Simulation time: 0 hr 2 min 41 sec) 
Heartbeat CPU  0 instructions:  117000002 cycles:   64362520 heartbeat IPC: 1.17151 cumulative IPC: 1.17044 (Simulation time: 0 hr 2 min 42 sec) 
Heartbeat CPU  0 instructions:  118000001 cycles:   65215990 heartbeat IPC: 1.17169 cumulative IPC: 1.17051 (Simulation time: 0 hr 2 min 44 sec) 
Heartbeat CPU  0 instructions:  119000002 cycles:   66077086 heartbeat IPC: 1.16131 cumulative IPC: 1.17002 (Simulation time: 0 hr 2 min 45 sec) 
Heartbeat CPU  0 instructions:  120000000 cycles:   66936111 heartbeat IPC: 1.16411 cumulative IPC: 1.16973 (Simulation time: 0 hr 2 min 47 sec) 
Heartbeat CPU  0 instructions:  121000001 cycles:   67783486 heartbeat IPC: 1.18012 cumulative IPC: 1.17022 (Simulation time: 0 hr 2 min 48 sec) 
Heartbeat CPU  0 instructions:  122000002 cycles:   68633809 heartbeat IPC: 1.17602 cumulative IPC: 1.17048 (Simulation time: 0 hr 2 min 50 sec) 
Heartbeat CPU  0 instructions:  123000001 cycles:   69485192 heartbeat IPC: 1.17456 cumulative IPC: 1.17066 (Simulation time: 0 hr 2 min 51 sec) 
Heartbeat CPU  0 instructions:  124000000 cycles:   70348340 heartbeat IPC: 1.15855 cumulative IPC: 1.17015 (Simulation time: 0 hr 2 min 53 sec) 
Heartbeat CPU  0 instructions:  125000000 cycles:   71217932 heartbeat IPC: 1.14996 cumulative IPC: 1.16933 (Simulation time: 0 hr 2 min 54 sec) 
Heartbeat CPU  0 instructions:  126000000 cycles:   72056725 heartbeat IPC: 1.19219 cumulative IPC: 1.17019 (Simulation time: 0 hr 2 min 56 sec) 
Heartbeat CPU  0 instructions:  127000000 cycles:   72905330 heartbeat IPC: 1.17840 cumulative IPC: 1.17049 (Simulation time: 0 hr 2 min 58 sec) 
Heartbeat CPU  0 instructions:  128000000 cycles:   73755110 heartbeat IPC: 1.17678 cumulative IPC: 1.17072 (Simulation time: 0 hr 2 min 59 sec) 
Heartbeat CPU  0 instructions:  129000002 cycles:   74615615 heartbeat IPC: 1.16211 cumulative IPC: 1.17042 (Simulation time: 0 hr 3 min 1 sec) 
Heartbeat CPU  0 instructions:  130000002 cycles:   75489653 heartbeat IPC: 1.14411 cumulative IPC: 1.16952 (Simulation time: 0 hr 3 min 2 sec) 
Heartbeat CPU  0 instructions:  131000002 cycles:   76331798 heartbeat IPC: 1.18744 cumulative IPC: 1.17009 (Simulation time: 0 hr 3 min 4 sec) 
Heartbeat CPU  0 instructions:  132000000 cycles:   77176855 heartbeat IPC: 1.18335 cumulative IPC: 1.17050 (Simulation time: 0 hr 3 min 5 sec) 
Heartbeat CPU  0 instructions:  133000000 cycles:   78027264 heartbeat IPC: 1.17590 cumulative IPC: 1.17066 (Simulation time: 0 hr 3 min 7 sec) 
Heartbeat CPU  0 instructions:  134000000 cycles:   78888918 heartbeat IPC: 1.16056 cumulative IPC: 1.17036 (Simulation time: 0 hr 3 min 8 sec) 
Heartbeat CPU  0 instructions:  135000002 cycles:   79759947 heartbeat IPC: 1.14807 cumulative IPC: 1.16971 (Simulation time: 0 hr 3 min 10 sec) 
Heartbeat CPU  0 instructions:  136000000 cycles:   80604010 heartbeat IPC: 1.18474 cumulative IPC: 1.17013 (Simulation time: 0 hr 3 min 11 sec) 
Heartbeat CPU  0 instructions:  137000001 cycles:   81446969 heartbeat IPC: 1.18630 cumulative IPC: 1.17056 (Simulation time: 0 hr 3 min 13 sec) 
Heartbeat CPU  0 instructions:  138000003 cycles:   82297673 heartbeat IPC: 1.17550 cumulative IPC: 1.17069 (Simulation time: 0 hr 3 min 14 sec) 
Heartbeat CPU  0 instructions:  139000003 cycles:   83157297 heartbeat IPC: 1.16330 cumulative IPC: 1.17050 (Simulation time: 0 hr 3 min 16 sec) 
Heartbeat CPU  0 instructions:  140000000 cycles:   84025473 heartbeat IPC: 1.15184 cumulative IPC: 1.17002 (Simulation time: 0 hr 3 min 17 sec) 
Heartbeat CPU  0 instructions:  141000003 cycles:   84873838 heartbeat IPC: 1.17874 cumulative IPC: 1.17023 (Simulation time: 0 hr 3 min 19 sec) 
Heartbeat CPU  0 instructions:  142000000 cycles:   85713250 heartbeat IPC: 1.19131 cumulative IPC: 1.17073 (Simulation time: 0 hr 3 min 20 sec) 
Heartbeat CPU  0 instructions:  143000001 cycles:   86563393 heartbeat IPC: 1.17627 cumulative IPC: 1.17086 (Simulation time: 0 hr 3 min 22 sec) 
Heartbeat CPU  0 instructions:  144000000 cycles:   87422967 heartbeat IPC: 1.16337 cumulative IPC: 1.17068 (Simulation time: 0 hr 3 min 23 sec) 
Heartbeat CPU  0 instructions:  145000002 cycles:   88288919 heartbeat IPC: 1.15480 cumulative IPC: 1.17033 (Simulation time: 0 hr 3 min 25 sec) 
Heartbeat CPU  0 instructions:  146000002 cycles:   89144418 heartbeat IPC: 1.16891 cumulative IPC: 1.17030 (Simulation time: 0 hr 3 min 26 sec) 
Heartbeat CPU  0 instructions:  147000002 cycles:   90035251 heartbeat IPC: 1.12254 cumulative IPC: 1.16924 (Simulation time: 0 hr 3 min 28 sec) 
Heartbeat CPU  0 instructions:  148000000 cycles:   91180056 heartbeat IPC: 0.87351 cumulative IPC: 1.16105 (Simulation time: 0 hr 3 min 29 sec) 
Heartbeat CPU  0 instructions:  149000002 cycles:   92325094 heartbeat IPC: 0.87334 cumulative IPC: 1.15329 (Simulation time: 0 hr 3 min 31 sec) 
Heartbeat CPU  0 instructions:  150000002 cycles:   93477306 heartbeat IPC: 0.86790 cumulative IPC: 1.14576 (Simulation time: 0 hr 3 min 33 sec) 
Heartbeat CPU  0 instructions:  151000000 cycles:   94624323 heartbeat IPC: 0.87182 cumulative IPC: 1.13874 (Simulation time: 0 hr 3 min 34 sec) 
Heartbeat CPU  0 instructions:  152000000 cycles:   95775690 heartbeat IPC: 0.86853 cumulative IPC: 1.13197 (Simulation time: 0 hr 3 min 36 sec) 
Heartbeat CPU  0 instructions:  153000003 cycles:   96926118 heartbeat IPC: 0.86924 cumulative IPC: 1.12555 (Simulation time: 0 hr 3 min 38 sec) 
Heartbeat CPU  0 instructions:  154000002 cycles:   98079574 heartbeat IPC: 0.86696 cumulative IPC: 1.11937 (Simulation time: 0 hr 3 min 39 sec) 
Heartbeat CPU  0 instructions:  155000003 cycles:   99227496 heartbeat IPC: 0.87114 cumulative IPC: 1.11360 (Simulation time: 0 hr 3 min 41 sec) 
Heartbeat CPU  0 instructions:  156000000 cycles:  100381425 heartbeat IPC: 0.86660 cumulative IPC: 1.10796 (Simulation time: 0 hr 3 min 43 sec) 
Heartbeat CPU  0 instructions:  157000003 cycles:  101538961 heartbeat IPC: 0.86391 cumulative IPC: 1.10250 (Simulation time: 0 hr 3 min 44 sec) 
Heartbeat CPU  0 instructions:  158000003 cycles:  102688664 heartbeat IPC: 0.86979 cumulative IPC: 1.09743 (Simulation time: 0 hr 3 min 46 sec) 
Heartbeat CPU  0 instructions:  159000003 cycles:  103847916 heartbeat IPC: 0.86263 cumulative IPC: 1.09239 (Simulation time: 0 hr 3 min 47 sec) 
Heartbeat CPU  0 instructions:  160000000 cycles:  104996112 heartbeat IPC: 0.87093 cumulative IPC: 1.08778 (Simulation time: 0 hr 3 min 49 sec) 
Heartbeat CPU  0 instructions:  161000000 cycles:  106143646 heartbeat IPC: 0.87143 cumulative IPC: 1.08337 (Simulation time: 0 hr 3 min 51 sec) 
Heartbeat CPU  0 instructions:  162000000 cycles:  107295242 heartbeat IPC: 0.86836 cumulative IPC: 1.07907 (Simulation time: 0 hr 3 min 52 sec) 
Heartbeat CPU  0 instructions:  163000002 cycles:  108449181 heartbeat IPC: 0.86660 cumulative IPC: 1.07488 (Simulation time: 0 hr 3 min 54 sec) 
Heartbeat CPU  0 instructions:  164000000 cycles:  109594995 heartbeat IPC: 0.87274 cumulative IPC: 1.07101 (Simulation time: 0 hr 3 min 56 sec) 
Heartbeat CPU  0 instructions:  165000001 cycles:  110747893 heartbeat IPC: 0.86738 cumulative IPC: 1.06715 (Simulation time: 0 hr 3 min 57 sec) 
Heartbeat CPU  0 instructions:  166000001 cycles:  111900462 heartbeat IPC: 0.86763 cumulative IPC: 1.06345 (Simulation time: 0 hr 3 min 59 sec) 
Heartbeat CPU  0 instructions:  167000001 cycles:  113053285 heartbeat IPC: 0.86744 cumulative IPC: 1.05987 (Simulation time: 0 hr 4 min 0 sec) 
Heartbeat CPU  0 instructions:  168000000 cycles:  114202865 heartbeat IPC: 0.86988 cumulative IPC: 1.05648 (Simulation time: 0 hr 4 min 2 sec) 
Heartbeat CPU  0 instructions:  169000002 cycles:  115350458 heartbeat IPC: 0.87139 cumulative IPC: 1.05324 (Simulation time: 0 hr 4 min 4 sec) 
Heartbeat CPU  0 instructions:  170000002 cycles:  116502887 heartbeat IPC: 0.86773 cumulative IPC: 1.05003 (Simulation time: 0 hr 4 min 5 sec) 
Heartbeat CPU  0 instructions:  171000002 cycles:  117653577 heartbeat IPC: 0.86904 cumulative IPC: 1.04696 (Simulation time: 0 hr 4 min 7 sec) 
Heartbeat CPU  0 instructions:  172000000 cycles:  118802565 heartbeat IPC: 0.87033 cumulative IPC: 1.04402 (Simulation time: 0 hr 4 min 8 sec) 
Heartbeat CPU  0 instructions:  173000002 cycles:  119954019 heartbeat IPC: 0.86847 cumulative IPC: 1.04113 (Simulation time: 0 hr 4 min 10 sec) 
Heartbeat CPU  0 instructions:  174000002 cycles:  121112039 heartbeat IPC: 0.86354 cumulative IPC: 1.03825 (Simulation time: 0 hr 4 min 12 sec) 
Heartbeat CPU  0 instructions:  175000002 cycles:  122261116 heartbeat IPC: 0.87026 cumulative IPC: 1.03558 (Simulation time: 0 hr 4 min 14 sec) 
Heartbeat CPU  0 instructions:  176000000 cycles:  123407858 heartbeat IPC: 0.87203 cumulative IPC: 1.03303 (Simulation time: 0 hr 4 min 15 sec) 
Heartbeat CPU  0 instructions:  177000003 cycles:  124561524 heartbeat IPC: 0.86680 cumulative IPC: 1.03047 (Simulation time: 0 hr 4 min 17 sec) 
Heartbeat CPU  0 instructions:  178000000 cycles:  125718652 heartbeat IPC: 0.86421 cumulative IPC: 1.02793 (Simulation time: 0 hr 4 min 19 sec) 
Heartbeat CPU  0 instructions:  179000002 cycles:  126882470 heartbeat IPC: 0.85924 cumulative IPC: 1.02538 (Simulation time: 0 hr 4 min 20 sec) 
Heartbeat CPU  0 instructions:  180000000 cycles:  128039418 heartbeat IPC: 0.86434 cumulative IPC: 1.02300 (Simulation time: 0 hr 4 min 22 sec) 
Heartbeat CPU  0 instructions:  181000003 cycles:  129192986 heartbeat IPC: 0.86688 cumulative IPC: 1.02073 (Simulation time: 0 hr 4 min 24 sec) 
Heartbeat CPU  0 instructions:  182000002 cycles:  130341298 heartbeat IPC: 0.87084 cumulative IPC: 1.01859 (Simulation time: 0 hr 4 min 25 sec) 
Heartbeat CPU  0 instructions:  183000000 cycles:  131496943 heartbeat IPC: 0.86532 cumulative IPC: 1.01642 (Simulation time: 0 hr 4 min 27 sec) 
Heartbeat CPU  0 instructions:  184000000 cycles:  132648772 heartbeat IPC: 0.86818 cumulative IPC: 1.01436 (Simulation time: 0 hr 4 min 29 sec) 
Heartbeat CPU  0 instructions:  185000003 cycles:  133799514 heartbeat IPC: 0.86901 cumulative IPC: 1.01237 (Simulation time: 0 hr 4 min 30 sec) 
Heartbeat CPU  0 instructions:  186000001 cycles:  134954787 heartbeat IPC: 0.86559 cumulative IPC: 1.01038 (Simulation time: 0 hr 4 min 32 sec) 
Heartbeat CPU  0 instructions:  187000002 cycles:  136111350 heartbeat IPC: 0.86463 cumulative IPC: 1.00842 (Simulation time: 0 hr 4 min 34 sec) 
Heartbeat CPU  0 instructions:  188000000 cycles:  137254315 heartbeat IPC: 0.87492 cumulative IPC: 1.00668 (Simulation time: 0 hr 4 min 35 sec) 
Heartbeat CPU  0 instructions:  189000001 cycles:  138406336 heartbeat IPC: 0.86804 cumulative IPC: 1.00488 (Simulation time: 0 hr 4 min 37 sec) 
Heartbeat CPU  0 instructions:  190000003 cycles:  139558443 heartbeat IPC: 0.86798 cumulative IPC: 1.00312 (Simulation time: 0 hr 4 min 39 sec) 
Heartbeat CPU  0 instructions:  191000002 cycles:  140710097 heartbeat IPC: 0.86832 cumulative IPC: 1.00141 (Simulation time: 0 hr 4 min 40 sec) 
Heartbeat CPU  0 instructions:  192000000 cycles:  141870215 heartbeat IPC: 0.86198 cumulative IPC: 0.99965 (Simulation time: 0 hr 4 min 42 sec) 
Heartbeat CPU  0 instructions:  193000003 cycles:  143013011 heartbeat IPC: 0.87505 cumulative IPC: 0.99812 (Simulation time: 0 hr 4 min 44 sec) 
Heartbeat CPU  0 instructions:  194000001 cycles:  146709843 heartbeat IPC: 0.27050 cumulative IPC: 0.97036 (Simulation time: 0 hr 4 min 46 sec) 
Heartbeat CPU  0 instructions:  195000000 cycles:  150164095 heartbeat IPC: 0.28950 cumulative IPC: 0.94691 (Simulation time: 0 hr 4 min 49 sec) 
Heartbeat CPU  0 instructions:  196000000 cycles:  150893672 heartbeat IPC: 1.37066 cumulative IPC: 0.94997 (Simulation time: 0 hr 4 min 50 sec) 
Heartbeat CPU  0 instructions:  197000000 cycles:  151622501 heartbeat IPC: 1.37206 cumulative IPC: 0.95299 (Simulation time: 0 hr 4 min 52 sec) 
Heartbeat CPU  0 instructions:  198000003 cycles:  152350415 heartbeat IPC: 1.37379 cumulative IPC: 0.95598 (Simulation time: 0 hr 4 min 54 sec) 
Heartbeat CPU  0 instructions:  199000002 cycles:  153082890 heartbeat IPC: 1.36523 cumulative IPC: 0.95889 (Simulation time: 0 hr 4 min 55 sec) 
Heartbeat CPU  0 instructions:  200000000 cycles:  153809540 heartbeat IPC: 1.37618 cumulative IPC: 0.96180 (Simulation time: 0 hr 4 min 57 sec) 
Finished CPU 0 instructions: 100000000 cycles: 103971455 cumulative IPC: 0.96180 (Simulation time: 0 hr 4 min 57 sec) 

ChampSim completed all CPUs

[ROI Statistics]
Core_0_instructions 100000000
Core_0_cycles 103971455
Core_0_IPC 0.96180

Core_0_branch_prediction_accuracy 99.15344
Core_0_branch_MPKI 0.35029
Core_0_average_ROB_occupancy_at_mispredict 249.75552

Core_0_L1D_total_access 27526918
Core_0_L1D_total_hit 26085117
Core_0_L1D_total_miss 1441801
Core_0_L1D_loads 23044997
Core_0_L1D_load_hit 21940190
Core_0_L1D_load_miss 1104807
Core_0_L1D_RFOs 4481921
Core_0_L1D_RFO_hit 4144927
Core_0_L1D_RFO_miss 336994
Core_0_L1D_prefetches 0
Core_0_L1D_prefetch_hit 0
Core_0_L1D_prefetch_miss 0
Core_0_L1D_writebacks 0
Core_0_L1D_writeback_hit 0
Core_0_L1D_writeback_miss 0
Core_0_L1D_prefetch_requested 0
Core_0_L1D_prefetch_issued 0
Core_0_L1D_prefetch_useful 0
Core_0_L1D_prefetch_useless 0
Core_0_L1D_prefetch_late 0
Core_0_L1D_average_miss_latency 67.21075

Core_0_L1I_total_access 22671930
Core_0_L1I_total_hit 22671710
Core_0_L1I_total_miss 220
Core_0_L1I_loads 22671930
Core_0_L1I_load_hit 22671710
Core_0_L1I_load_miss 220
Core_0_L1I_RFOs 0
Core_0_L1I_RFO_hit 0
Core_0_L1I_RFO_miss 0
Core_0_L1I_prefetches 0
Core_0_L1I_prefetch_hit 0
Core_0_L1I_prefetch_miss 0
Core_0_L1I_writebacks 0
Core_0_L1I_writeback_hit 0
Core_0_L1I_writeback_miss 0
Core_0_L1I_prefetch_requested 0
Core_0_L1I_prefetch_issued 0
Core_0_L1I_prefetch_useful 0
Core_0_L1I_prefetch_useless 0
Core_0_L1I_prefetch_late 0
Core_0_L1I_average_miss_latency 224.55909

Core_0_L2C_total_access 4110215
Core_0_L2C_total_hit 3060633
Core_0_L2C_total_miss 1049582
Core_0_L2C_loads 1105022
Core_0_L2C_load_hit 916933
Core_0_L2C_load_miss 188089
Core_0_L2C_RFOs 336940
Core_0_L2C_RFO_hit 120534
Core_0_L2C_RFO_miss 216406
Core_0_L2C_prefetches 2115122
Core_0_L2C_prefetch_hit 1470222
Core_0_L2C_prefetch_miss 644900
Core_0_L2C_writebacks 553131
Core_0_L2C_writeback_hit 552944
Core_0_L2C_writeback_miss 187
Core_0_L2C_prefetch_requested 5114712
Core_0_L2C_prefetch_issued 5105413
Core_0_L2C_prefetch_useful 1037506
Core_0_L2C_prefetch_useless 87284
Core_0_L2C_prefetch_late 65104
Core_0_L2C_average_miss_latency 146.26581

Core_0_LLC_total_access 1872625
Core_0_LLC_total_hit 911833
Core_0_LLC_total_miss 960792
Core_0_LLC_loads 122985
Core_0_LLC_load_hit 65483
Core_0_LLC_load_miss 57502
Core_0_LLC_RFOs 216404
Core_0_LLC_RFO_hit 26028
Core_0_LLC_RFO_miss 190376
Core_0_LLC_prefetches 1125629
Core_0_LLC_prefetch_hit 421599
Core_0_LLC_prefetch_miss 704030
Core_0_LLC_writebacks 407607
Core_0_LLC_writeback_hit 398723
Core_0_LLC_writeback_miss 8884
Core_0_LLC_prefetch_requested 1217328
Core_0_LLC_prefetch_issued 1198042
Core_0_LLC_prefetch_useful 141770
Core_0_LLC_prefetch_useless 899892
Core_0_LLC_prefetch_late 5271
Core_0_LLC_average_miss_latency 242.38019

Core_0_major_page_fault 0
Core_0_minor_page_fault 15627

CPU 0 L2C PC-based stride prefetcher final stats
LLC Next Line Prefetcher Final Stats: none
Channel_0_RQ_row_buffer_hit 318035
Channel_0_RQ_row_buffer_miss 633859
Channel_0_WQ_row_buffer_hit 56369
Channel_0_WQ_row_buffer_miss 329209
Channel_0_WQ_full 0
Channel_0_dbus_congested 371825

avg_congested_cycle 9
