*************************************************
   ChampSim Multicore Out-of-Order Simulator
   Last compiled: Dec 23 2023 16:47:07
*************************************************

trace_0 ./test_trace/437.leslie3d-134B.champsimtrace.xz
CPU 0 L1D next line prefetcher
warmup_instructions 100000000
simulation_instructions 100000000
champsim_seed 218

num_cpus 1
cpu_freq 4000
dram_io_freq 2400
page_size 4096
block_size 64
max_read_per_cycle 8
max_fill_per_cycle 1
dram_channels 1
dram_ranks 1
dram_banks 8
dram_rows 65536
dram_columns 128
dram_row_size 8
dram_size 4096
dram_pages 1048576

fetch_width 6
decode_width 6
exec_width 4
lq_width 2
sq_width 2
retire_width 4
scheduler_size 128
branch_mispredict_penalty 20
rob_size 256
lq_size 72
sq_size 56
num_instr_destinations_sparc 4
num_instr_destinations 2
num_instr_sources 4

itlb_set 16
itlb_way 8
itlb_rq_size 16
itlb_wq_size 16
itlb_pq_size 0
itlb_mshr_size 8
itlb_latency 1

dtlb_set 16
dtlb_way 4
dtlb_rq_size 16
dtlb_wq_size 16
dtlb_pq_size 0
dtlb_mshr_size 8
dtlb_latency 1

stlb_set 128
stlb_way 12
stlb_rq_size 32
stlb_wq_size 32
stlb_pq_size 0
stlb_mshr_size 16
stlb_latency 8

l1i_size 32
l1i_set 64
l1i_way 8
l1i_rq_size 64
l1i_wq_size 64
l1i_pq_size 8
l1i_mshr_size 8
l1i_latency 1

l1d_size 32
l1d_set 64
l1d_way 8
l1d_rq_size 64
l1d_wq_size 64
l1d_pq_size 8
l1d_mshr_size 16
l1d_latency 4

l2c_size 512
l2c_set 1024
l2c_way 8
l2c_rq_size 32
l2c_wq_size 32
l2c_pq_size 16
l2c_mshr_size 32
l2c_latency 10

llc_size 2048
llc_set 2048
llc_way 16
llc_rq_size 32
llc_wq_size 32
llc_pq_size 32
llc_mshr_size 64
llc_latency 20

dram_channel_width 8
dram_wq_size 64
dram_rq_size 64
tRP 15
tRCD 15
tCAS 12.5
dram_dbus_turn_around_time 30
dram_write_high_wm 56
dram_write_low_wm 48
min_dram_writes_per_switch 16
dram_mtps 2400
dram_dbus_return_time 13


Heartbeat CPU  0 instructions:    1000002 cycles:     502365 heartbeat IPC: 1.99059 cumulative IPC: 1.99059 (Simulation time: 0 hr 0 min 2 sec) 
Heartbeat CPU  0 instructions:    2000001 cycles:     993939 heartbeat IPC: 2.03428 cumulative IPC: 2.01220 (Simulation time: 0 hr 0 min 3 sec) 
Heartbeat CPU  0 instructions:    3000001 cycles:    1490646 heartbeat IPC: 2.01326 cumulative IPC: 2.01255 (Simulation time: 0 hr 0 min 4 sec) 
Heartbeat CPU  0 instructions:    4000000 cycles:    1992242 heartbeat IPC: 1.99363 cumulative IPC: 2.00779 (Simulation time: 0 hr 0 min 5 sec) 
Heartbeat CPU  0 instructions:    5000000 cycles:    2494080 heartbeat IPC: 1.99267 cumulative IPC: 2.00475 (Simulation time: 0 hr 0 min 7 sec) 
Heartbeat CPU  0 instructions:    6000001 cycles:    2995828 heartbeat IPC: 1.99303 cumulative IPC: 2.00279 (Simulation time: 0 hr 0 min 8 sec) 
Heartbeat CPU  0 instructions:    7000000 cycles:    3482648 heartbeat IPC: 2.05415 cumulative IPC: 2.00996 (Simulation time: 0 hr 0 min 9 sec) 
Heartbeat CPU  0 instructions:    8000000 cycles:    3984370 heartbeat IPC: 1.99314 cumulative IPC: 2.00785 (Simulation time: 0 hr 0 min 11 sec) 
Heartbeat CPU  0 instructions:    9000001 cycles:    4485315 heartbeat IPC: 1.99623 cumulative IPC: 2.00655 (Simulation time: 0 hr 0 min 12 sec) 
Heartbeat CPU  0 instructions:   10000000 cycles:    4986992 heartbeat IPC: 1.99331 cumulative IPC: 2.00522 (Simulation time: 0 hr 0 min 13 sec) 
Heartbeat CPU  0 instructions:   11000001 cycles:    5480849 heartbeat IPC: 2.02488 cumulative IPC: 2.00699 (Simulation time: 0 hr 0 min 15 sec) 
Heartbeat CPU  0 instructions:   12000000 cycles:    5975578 heartbeat IPC: 2.02131 cumulative IPC: 2.00817 (Simulation time: 0 hr 0 min 16 sec) 
Heartbeat CPU  0 instructions:   13000003 cycles:    6477165 heartbeat IPC: 1.99368 cumulative IPC: 2.00705 (Simulation time: 0 hr 0 min 17 sec) 
Heartbeat CPU  0 instructions:   14000001 cycles:    6978558 heartbeat IPC: 1.99444 cumulative IPC: 2.00615 (Simulation time: 0 hr 0 min 18 sec) 
Heartbeat CPU  0 instructions:   15000003 cycles:    7479922 heartbeat IPC: 1.99456 cumulative IPC: 2.00537 (Simulation time: 0 hr 0 min 20 sec) 
Heartbeat CPU  0 instructions:   16000000 cycles:    7967066 heartbeat IPC: 2.05277 cumulative IPC: 2.00827 (Simulation time: 0 hr 0 min 21 sec) 
Heartbeat CPU  0 instructions:   17000001 cycles:    8468775 heartbeat IPC: 1.99319 cumulative IPC: 2.00737 (Simulation time: 0 hr 0 min 22 sec) 
Heartbeat CPU  0 instructions:   18000001 cycles:    8970095 heartbeat IPC: 1.99473 cumulative IPC: 2.00667 (Simulation time: 0 hr 0 min 24 sec) 
Heartbeat CPU  0 instructions:   19000003 cycles:    9471254 heartbeat IPC: 1.99538 cumulative IPC: 2.00607 (Simulation time: 0 hr 0 min 25 sec) 
Heartbeat CPU  0 instructions:   20000000 cycles:    9967790 heartbeat IPC: 2.01395 cumulative IPC: 2.00646 (Simulation time: 0 hr 0 min 26 sec) 
Heartbeat CPU  0 instructions:   21000001 cycles:   10459748 heartbeat IPC: 2.03270 cumulative IPC: 2.00770 (Simulation time: 0 hr 0 min 27 sec) 
Heartbeat CPU  0 instructions:   22000003 cycles:   10961572 heartbeat IPC: 1.99273 cumulative IPC: 2.00701 (Simulation time: 0 hr 0 min 29 sec) 
Heartbeat CPU  0 instructions:   23000001 cycles:   11463695 heartbeat IPC: 1.99154 cumulative IPC: 2.00633 (Simulation time: 0 hr 0 min 30 sec) 
Heartbeat CPU  0 instructions:   24000000 cycles:   11965202 heartbeat IPC: 1.99399 cumulative IPC: 2.00582 (Simulation time: 0 hr 0 min 31 sec) 
Heartbeat CPU  0 instructions:   25000003 cycles:   12451710 heartbeat IPC: 2.05547 cumulative IPC: 2.00776 (Simulation time: 0 hr 0 min 33 sec) 
Heartbeat CPU  0 instructions:   26000001 cycles:   12953530 heartbeat IPC: 1.99274 cumulative IPC: 2.00717 (Simulation time: 0 hr 0 min 34 sec) 
Heartbeat CPU  0 instructions:   27000003 cycles:   13455506 heartbeat IPC: 1.99213 cumulative IPC: 2.00661 (Simulation time: 0 hr 0 min 35 sec) 
Heartbeat CPU  0 instructions:   28000000 cycles:   13957325 heartbeat IPC: 1.99274 cumulative IPC: 2.00611 (Simulation time: 0 hr 0 min 37 sec) 
Heartbeat CPU  0 instructions:   29000002 cycles:   14454936 heartbeat IPC: 2.00961 cumulative IPC: 2.00624 (Simulation time: 0 hr 0 min 38 sec) 
Heartbeat CPU  0 instructions:   30000000 cycles:   14945247 heartbeat IPC: 2.03952 cumulative IPC: 2.00733 (Simulation time: 0 hr 0 min 39 sec) 
Heartbeat CPU  0 instructions:   31000002 cycles:   15446781 heartbeat IPC: 1.99389 cumulative IPC: 2.00689 (Simulation time: 0 hr 0 min 40 sec) 
Heartbeat CPU  0 instructions:   32000000 cycles:   15948211 heartbeat IPC: 1.99429 cumulative IPC: 2.00649 (Simulation time: 0 hr 0 min 42 sec) 
Heartbeat CPU  0 instructions:   33000001 cycles:   16450215 heartbeat IPC: 1.99202 cumulative IPC: 2.00605 (Simulation time: 0 hr 0 min 43 sec) 
Heartbeat CPU  0 instructions:   34000003 cycles:   16938937 heartbeat IPC: 2.04616 cumulative IPC: 2.00721 (Simulation time: 0 hr 0 min 44 sec) 
Heartbeat CPU  0 instructions:   35000000 cycles:   17438207 heartbeat IPC: 2.00292 cumulative IPC: 2.00709 (Simulation time: 0 hr 0 min 46 sec) 
Heartbeat CPU  0 instructions:   36000000 cycles:   17939461 heartbeat IPC: 1.99500 cumulative IPC: 2.00675 (Simulation time: 0 hr 0 min 47 sec) 
Heartbeat CPU  0 instructions:   37000003 cycles:   18441141 heartbeat IPC: 1.99331 cumulative IPC: 2.00638 (Simulation time: 0 hr 0 min 48 sec) 
Heartbeat CPU  0 instructions:   38000003 cycles:   18941940 heartbeat IPC: 1.99681 cumulative IPC: 2.00613 (Simulation time: 0 hr 0 min 50 sec) 
Heartbeat CPU  0 instructions:   39000003 cycles:   19429462 heartbeat IPC: 2.05119 cumulative IPC: 2.00726 (Simulation time: 0 hr 0 min 51 sec) 
Heartbeat CPU  0 instructions:   40000000 cycles:   19930538 heartbeat IPC: 1.99570 cumulative IPC: 2.00697 (Simulation time: 0 hr 0 min 52 sec) 
Heartbeat CPU  0 instructions:   41000001 cycles:   20432330 heartbeat IPC: 1.99286 cumulative IPC: 2.00662 (Simulation time: 0 hr 0 min 53 sec) 
Heartbeat CPU  0 instructions:   42000002 cycles:   20934241 heartbeat IPC: 1.99239 cumulative IPC: 2.00628 (Simulation time: 0 hr 0 min 55 sec) 
Heartbeat CPU  0 instructions:   43000003 cycles:   21425703 heartbeat IPC: 2.03475 cumulative IPC: 2.00694 (Simulation time: 0 hr 0 min 56 sec) 
Heartbeat CPU  0 instructions:   44000000 cycles:   21922575 heartbeat IPC: 2.01258 cumulative IPC: 2.00706 (Simulation time: 0 hr 0 min 57 sec) 
Heartbeat CPU  0 instructions:   45000001 cycles:   22424518 heartbeat IPC: 1.99226 cumulative IPC: 2.00673 (Simulation time: 0 hr 0 min 59 sec) 
Heartbeat CPU  0 instructions:   46000000 cycles:   22925883 heartbeat IPC: 1.99455 cumulative IPC: 2.00647 (Simulation time: 0 hr 1 min 0 sec) 
Heartbeat CPU  0 instructions:   47000002 cycles:   23427689 heartbeat IPC: 1.99281 cumulative IPC: 2.00617 (Simulation time: 0 hr 1 min 1 sec) 
Heartbeat CPU  0 instructions:   48000000 cycles:   23914271 heartbeat IPC: 2.05515 cumulative IPC: 2.00717 (Simulation time: 0 hr 1 min 2 sec) 
Heartbeat CPU  0 instructions:   49000002 cycles:   24416103 heartbeat IPC: 1.99270 cumulative IPC: 2.00687 (Simulation time: 0 hr 1 min 4 sec) 
Heartbeat CPU  0 instructions:   50000003 cycles:   24917448 heartbeat IPC: 1.99464 cumulative IPC: 2.00663 (Simulation time: 0 hr 1 min 5 sec) 
Heartbeat CPU  0 instructions:   51000003 cycles:   25418724 heartbeat IPC: 1.99491 cumulative IPC: 2.00640 (Simulation time: 0 hr 1 min 6 sec) 
Heartbeat CPU  0 instructions:   52000000 cycles:   25912176 heartbeat IPC: 2.02653 cumulative IPC: 2.00678 (Simulation time: 0 hr 1 min 8 sec) 
Heartbeat CPU  0 instructions:   53000001 cycles:   26407230 heartbeat IPC: 2.01998 cumulative IPC: 2.00703 (Simulation time: 0 hr 1 min 9 sec) 
Heartbeat CPU  0 instructions:   54000003 cycles:   26908854 heartbeat IPC: 1.99353 cumulative IPC: 2.00677 (Simulation time: 0 hr 1 min 10 sec) 
Heartbeat CPU  0 instructions:   55000003 cycles:   27410364 heartbeat IPC: 1.99398 cumulative IPC: 2.00654 (Simulation time: 0 hr 1 min 11 sec) 
Heartbeat CPU  0 instructions:   56000000 cycles:   27911549 heartbeat IPC: 1.99527 cumulative IPC: 2.00634 (Simulation time: 0 hr 1 min 13 sec) 
Heartbeat CPU  0 instructions:   57000002 cycles:   28398531 heartbeat IPC: 2.05347 cumulative IPC: 2.00715 (Simulation time: 0 hr 1 min 14 sec) 
Heartbeat CPU  0 instructions:   58000003 cycles:   28900068 heartbeat IPC: 1.99387 cumulative IPC: 2.00692 (Simulation time: 0 hr 1 min 15 sec) 
Heartbeat CPU  0 instructions:   59000001 cycles:   29401681 heartbeat IPC: 1.99356 cumulative IPC: 2.00669 (Simulation time: 0 hr 1 min 17 sec) 
Heartbeat CPU  0 instructions:   60000000 cycles:   29902784 heartbeat IPC: 1.99560 cumulative IPC: 2.00650 (Simulation time: 0 hr 1 min 18 sec) 
Heartbeat CPU  0 instructions:   61000000 cycles:   30398744 heartbeat IPC: 2.01629 cumulative IPC: 2.00666 (Simulation time: 0 hr 1 min 19 sec) 
Heartbeat CPU  0 instructions:   62000001 cycles:   30891036 heartbeat IPC: 2.03132 cumulative IPC: 2.00705 (Simulation time: 0 hr 1 min 20 sec) 
Heartbeat CPU  0 instructions:   63000001 cycles:   31392801 heartbeat IPC: 1.99296 cumulative IPC: 2.00683 (Simulation time: 0 hr 1 min 22 sec) 
Heartbeat CPU  0 instructions:   64000000 cycles:   31894839 heartbeat IPC: 1.99188 cumulative IPC: 2.00659 (Simulation time: 0 hr 1 min 23 sec) 
Heartbeat CPU  0 instructions:   65000000 cycles:   32396516 heartbeat IPC: 1.99331 cumulative IPC: 2.00639 (Simulation time: 0 hr 1 min 24 sec) 
Heartbeat CPU  0 instructions:   66000003 cycles:   32882725 heartbeat IPC: 2.05673 cumulative IPC: 2.00713 (Simulation time: 0 hr 1 min 26 sec) 
Heartbeat CPU  0 instructions:   67000000 cycles:   33384527 heartbeat IPC: 1.99281 cumulative IPC: 2.00692 (Simulation time: 0 hr 1 min 27 sec) 
Heartbeat CPU  0 instructions:   68000000 cycles:   33886312 heartbeat IPC: 1.99289 cumulative IPC: 2.00671 (Simulation time: 0 hr 1 min 28 sec) 
Heartbeat CPU  0 instructions:   69000001 cycles:   34388331 heartbeat IPC: 1.99196 cumulative IPC: 2.00649 (Simulation time: 0 hr 1 min 29 sec) 
Heartbeat CPU  0 instructions:   70000000 cycles:   34885625 heartbeat IPC: 2.01088 cumulative IPC: 2.00656 (Simulation time: 0 hr 1 min 31 sec) 
Heartbeat CPU  0 instructions:   71000001 cycles:   35376103 heartbeat IPC: 2.03883 cumulative IPC: 2.00700 (Simulation time: 0 hr 1 min 32 sec) 
Heartbeat CPU  0 instructions:   72000000 cycles:   35877982 heartbeat IPC: 1.99251 cumulative IPC: 2.00680 (Simulation time: 0 hr 1 min 33 sec) 
Heartbeat CPU  0 instructions:   73000002 cycles:   36379078 heartbeat IPC: 1.99563 cumulative IPC: 2.00665 (Simulation time: 0 hr 1 min 35 sec) 
Heartbeat CPU  0 instructions:   74000003 cycles:   36880829 heartbeat IPC: 1.99302 cumulative IPC: 2.00646 (Simulation time: 0 hr 1 min 36 sec) 
Heartbeat CPU  0 instructions:   75000001 cycles:   37369542 heartbeat IPC: 2.04619 cumulative IPC: 2.00698 (Simulation time: 0 hr 1 min 37 sec) 
Heartbeat CPU  0 instructions:   76000000 cycles:   37868911 heartbeat IPC: 2.00253 cumulative IPC: 2.00692 (Simulation time: 0 hr 1 min 39 sec) 
Heartbeat CPU  0 instructions:   77000000 cycles:   38370640 heartbeat IPC: 1.99311 cumulative IPC: 2.00674 (Simulation time: 0 hr 1 min 40 sec) 
Heartbeat CPU  0 instructions:   78000003 cycles:   38872114 heartbeat IPC: 1.99413 cumulative IPC: 2.00658 (Simulation time: 0 hr 1 min 41 sec) 
Heartbeat CPU  0 instructions:   79000001 cycles:   39372471 heartbeat IPC: 1.99857 cumulative IPC: 2.00648 (Simulation time: 0 hr 1 min 42 sec) 
Heartbeat CPU  0 instructions:   80000000 cycles:   39860975 heartbeat IPC: 2.04706 cumulative IPC: 2.00698 (Simulation time: 0 hr 1 min 44 sec) 
Heartbeat CPU  0 instructions:   81000003 cycles:   40361948 heartbeat IPC: 1.99612 cumulative IPC: 2.00684 (Simulation time: 0 hr 1 min 45 sec) 
Heartbeat CPU  0 instructions:   82000003 cycles:   40863483 heartbeat IPC: 1.99388 cumulative IPC: 2.00668 (Simulation time: 0 hr 1 min 46 sec) 
Heartbeat CPU  0 instructions:   83000001 cycles:   41365155 heartbeat IPC: 1.99333 cumulative IPC: 2.00652 (Simulation time: 0 hr 1 min 48 sec) 
Heartbeat CPU  0 instructions:   84000000 cycles:   41856375 heartbeat IPC: 2.03575 cumulative IPC: 2.00686 (Simulation time: 0 hr 1 min 49 sec) 
Heartbeat CPU  0 instructions:   85000002 cycles:   42353839 heartbeat IPC: 2.01020 cumulative IPC: 2.00690 (Simulation time: 0 hr 1 min 50 sec) 
Heartbeat CPU  0 instructions:   86000002 cycles:   42855724 heartbeat IPC: 1.99249 cumulative IPC: 2.00673 (Simulation time: 0 hr 1 min 51 sec) 
Heartbeat CPU  0 instructions:   87000002 cycles:   43357254 heartbeat IPC: 1.99390 cumulative IPC: 2.00658 (Simulation time: 0 hr 1 min 53 sec) 
Heartbeat CPU  0 instructions:   88000000 cycles:   43859113 heartbeat IPC: 1.99259 cumulative IPC: 2.00642 (Simulation time: 0 hr 1 min 55 sec) 
Heartbeat CPU  0 instructions:   89000003 cycles:   44345748 heartbeat IPC: 2.05493 cumulative IPC: 2.00696 (Simulation time: 0 hr 1 min 57 sec) 
Heartbeat CPU  0 instructions:   90000002 cycles:   44847783 heartbeat IPC: 1.99189 cumulative IPC: 2.00679 (Simulation time: 0 hr 1 min 58 sec) 
Heartbeat CPU  0 instructions:   91000000 cycles:   45349150 heartbeat IPC: 1.99454 cumulative IPC: 2.00665 (Simulation time: 0 hr 1 min 59 sec) 
Heartbeat CPU  0 instructions:   92000000 cycles:   45850792 heartbeat IPC: 1.99345 cumulative IPC: 2.00651 (Simulation time: 0 hr 2 min 1 sec) 
Heartbeat CPU  0 instructions:   93000002 cycles:   46343584 heartbeat IPC: 2.02926 cumulative IPC: 2.00675 (Simulation time: 0 hr 2 min 2 sec) 
Heartbeat CPU  0 instructions:   94000003 cycles:   46839318 heartbeat IPC: 2.01721 cumulative IPC: 2.00686 (Simulation time: 0 hr 2 min 3 sec) 
Heartbeat CPU  0 instructions:   95000003 cycles:   47340875 heartbeat IPC: 1.99379 cumulative IPC: 2.00672 (Simulation time: 0 hr 2 min 5 sec) 
Heartbeat CPU  0 instructions:   96000000 cycles:   47842491 heartbeat IPC: 1.99355 cumulative IPC: 2.00658 (Simulation time: 0 hr 2 min 6 sec) 
Heartbeat CPU  0 instructions:   97000000 cycles:   48343824 heartbeat IPC: 1.99468 cumulative IPC: 2.00646 (Simulation time: 0 hr 2 min 7 sec) 
Heartbeat CPU  0 instructions:   98000000 cycles:   48830510 heartbeat IPC: 2.05471 cumulative IPC: 2.00694 (Simulation time: 0 hr 2 min 8 sec) 
Heartbeat CPU  0 instructions:   99000002 cycles:   49332131 heartbeat IPC: 1.99354 cumulative IPC: 2.00681 (Simulation time: 0 hr 2 min 10 sec) 
Heartbeat CPU  0 instructions:  100000000 cycles:   49833696 heartbeat IPC: 1.99376 cumulative IPC: 2.00667 (Simulation time: 0 hr 2 min 11 sec) 

Warmup complete CPU  0 instructions:  100000003 cycles:   49833697 (Simulation time: 0 hr 2 min 11 sec) 

Heartbeat CPU  0 instructions:  101000001 cycles:   50718222 heartbeat IPC: 1.13055 cumulative IPC: 1.13055 (Simulation time: 0 hr 2 min 13 sec) 
Heartbeat CPU  0 instructions:  102000002 cycles:   51600786 heartbeat IPC: 1.13306 cumulative IPC: 1.13180 (Simulation time: 0 hr 2 min 14 sec) 
Heartbeat CPU  0 instructions:  103000001 cycles:   52497484 heartbeat IPC: 1.11520 cumulative IPC: 1.12622 (Simulation time: 0 hr 2 min 16 sec) 
Heartbeat CPU  0 instructions:  104000000 cycles:   53395272 heartbeat IPC: 1.11385 cumulative IPC: 1.12310 (Simulation time: 0 hr 2 min 17 sec) 
Heartbeat CPU  0 instructions:  105000003 cycles:   54268881 heartbeat IPC: 1.14468 cumulative IPC: 1.12735 (Simulation time: 0 hr 2 min 18 sec) 
Heartbeat CPU  0 instructions:  106000001 cycles:   55155036 heartbeat IPC: 1.12847 cumulative IPC: 1.12754 (Simulation time: 0 hr 2 min 20 sec) 
Heartbeat CPU  0 instructions:  107000002 cycles:   56038137 heartbeat IPC: 1.13237 cumulative IPC: 1.12822 (Simulation time: 0 hr 2 min 21 sec) 
Heartbeat CPU  0 instructions:  108000000 cycles:   56939123 heartbeat IPC: 1.10989 cumulative IPC: 1.12590 (Simulation time: 0 hr 2 min 23 sec) 
Heartbeat CPU  0 instructions:  109000003 cycles:   57836111 heartbeat IPC: 1.11485 cumulative IPC: 1.12466 (Simulation time: 0 hr 2 min 24 sec) 
Heartbeat CPU  0 instructions:  110000001 cycles:   58719682 heartbeat IPC: 1.13177 cumulative IPC: 1.12537 (Simulation time: 0 hr 2 min 26 sec) 
Heartbeat CPU  0 instructions:  111000003 cycles:   59592445 heartbeat IPC: 1.14579 cumulative IPC: 1.12719 (Simulation time: 0 hr 2 min 27 sec) 
Heartbeat CPU  0 instructions:  112000000 cycles:   60482742 heartbeat IPC: 1.12322 cumulative IPC: 1.12686 (Simulation time: 0 hr 2 min 29 sec) 
Heartbeat CPU  0 instructions:  113000001 cycles:   61376122 heartbeat IPC: 1.11935 cumulative IPC: 1.12628 (Simulation time: 0 hr 2 min 30 sec) 
Heartbeat CPU  0 instructions:  114000002 cycles:   62266821 heartbeat IPC: 1.12271 cumulative IPC: 1.12602 (Simulation time: 0 hr 2 min 32 sec) 
Heartbeat CPU  0 instructions:  115000000 cycles:   63154114 heartbeat IPC: 1.12702 cumulative IPC: 1.12609 (Simulation time: 0 hr 2 min 33 sec) 
Heartbeat CPU  0 instructions:  116000000 cycles:   64033858 heartbeat IPC: 1.13669 cumulative IPC: 1.12675 (Simulation time: 0 hr 2 min 35 sec) 
Heartbeat CPU  0 instructions:  117000002 cycles:   64923073 heartbeat IPC: 1.12459 cumulative IPC: 1.12662 (Simulation time: 0 hr 2 min 36 sec) 
Heartbeat CPU  0 instructions:  118000001 cycles:   65817699 heartbeat IPC: 1.11778 cumulative IPC: 1.12613 (Simulation time: 0 hr 2 min 38 sec) 
Heartbeat CPU  0 instructions:  119000002 cycles:   66719072 heartbeat IPC: 1.10942 cumulative IPC: 1.12523 (Simulation time: 0 hr 2 min 39 sec) 
Heartbeat CPU  0 instructions:  120000000 cycles:   67609457 heartbeat IPC: 1.12311 cumulative IPC: 1.12513 (Simulation time: 0 hr 2 min 40 sec) 
Heartbeat CPU  0 instructions:  121000001 cycles:   68489752 heartbeat IPC: 1.13598 cumulative IPC: 1.12564 (Simulation time: 0 hr 2 min 42 sec) 
Heartbeat CPU  0 instructions:  122000002 cycles:   69374175 heartbeat IPC: 1.13068 cumulative IPC: 1.12587 (Simulation time: 0 hr 2 min 43 sec) 
Heartbeat CPU  0 instructions:  123000000 cycles:   70258439 heartbeat IPC: 1.13088 cumulative IPC: 1.12609 (Simulation time: 0 hr 2 min 45 sec) 
Heartbeat CPU  0 instructions:  124000000 cycles:   71153423 heartbeat IPC: 1.11734 cumulative IPC: 1.12572 (Simulation time: 0 hr 2 min 46 sec) 
Heartbeat CPU  0 instructions:  125000000 cycles:   72050244 heartbeat IPC: 1.11505 cumulative IPC: 1.12529 (Simulation time: 0 hr 2 min 48 sec) 
Heartbeat CPU  0 instructions:  126000000 cycles:   72919667 heartbeat IPC: 1.15019 cumulative IPC: 1.12622 (Simulation time: 0 hr 2 min 49 sec) 
Heartbeat CPU  0 instructions:  127000000 cycles:   73800164 heartbeat IPC: 1.13572 cumulative IPC: 1.12657 (Simulation time: 0 hr 2 min 51 sec) 
Heartbeat CPU  0 instructions:  128000000 cycles:   74682805 heartbeat IPC: 1.13296 cumulative IPC: 1.12680 (Simulation time: 0 hr 2 min 52 sec) 
Heartbeat CPU  0 instructions:  129000002 cycles:   75574587 heartbeat IPC: 1.12135 cumulative IPC: 1.12661 (Simulation time: 0 hr 2 min 54 sec) 
Heartbeat CPU  0 instructions:  130000002 cycles:   76470041 heartbeat IPC: 1.11675 cumulative IPC: 1.12628 (Simulation time: 0 hr 2 min 55 sec) 
Heartbeat CPU  0 instructions:  131000002 cycles:   77346635 heartbeat IPC: 1.14078 cumulative IPC: 1.12674 (Simulation time: 0 hr 2 min 57 sec) 
Heartbeat CPU  0 instructions:  132000000 cycles:   78223603 heartbeat IPC: 1.14029 cumulative IPC: 1.12716 (Simulation time: 0 hr 2 min 58 sec) 
Heartbeat CPU  0 instructions:  133000000 cycles:   79109175 heartbeat IPC: 1.12921 cumulative IPC: 1.12722 (Simulation time: 0 hr 3 min 0 sec) 
Heartbeat CPU  0 instructions:  134000000 cycles:   79996295 heartbeat IPC: 1.12724 cumulative IPC: 1.12722 (Simulation time: 0 hr 3 min 1 sec) 
Heartbeat CPU  0 instructions:  135000002 cycles:   80896850 heartbeat IPC: 1.11043 cumulative IPC: 1.12674 (Simulation time: 0 hr 3 min 2 sec) 
Heartbeat CPU  0 instructions:  136000000 cycles:   81774965 heartbeat IPC: 1.13880 cumulative IPC: 1.12707 (Simulation time: 0 hr 3 min 4 sec) 
Heartbeat CPU  0 instructions:  137000001 cycles:   82650586 heartbeat IPC: 1.14205 cumulative IPC: 1.12747 (Simulation time: 0 hr 3 min 5 sec) 
Heartbeat CPU  0 instructions:  138000003 cycles:   83538550 heartbeat IPC: 1.12617 cumulative IPC: 1.12743 (Simulation time: 0 hr 3 min 7 sec) 
Heartbeat CPU  0 instructions:  139000003 cycles:   84421749 heartbeat IPC: 1.13225 cumulative IPC: 1.12756 (Simulation time: 0 hr 3 min 8 sec) 
Heartbeat CPU  0 instructions:  140000000 cycles:   85321007 heartbeat IPC: 1.11202 cumulative IPC: 1.12716 (Simulation time: 0 hr 3 min 10 sec) 
Heartbeat CPU  0 instructions:  141000003 cycles:   86202564 heartbeat IPC: 1.13436 cumulative IPC: 1.12734 (Simulation time: 0 hr 3 min 11 sec) 
Heartbeat CPU  0 instructions:  142000000 cycles:   87080196 heartbeat IPC: 1.13943 cumulative IPC: 1.12762 (Simulation time: 0 hr 3 min 12 sec) 
Heartbeat CPU  0 instructions:  143000000 cycles:   87957750 heartbeat IPC: 1.13953 cumulative IPC: 1.12790 (Simulation time: 0 hr 3 min 14 sec) 
Heartbeat CPU  0 instructions:  144000000 cycles:   88849178 heartbeat IPC: 1.12180 cumulative IPC: 1.12776 (Simulation time: 0 hr 3 min 15 sec) 
Heartbeat CPU  0 instructions:  145000002 cycles:   89754770 heartbeat IPC: 1.10425 cumulative IPC: 1.12722 (Simulation time: 0 hr 3 min 17 sec) 
Heartbeat CPU  0 instructions:  146000002 cycles:   90648179 heartbeat IPC: 1.11931 cumulative IPC: 1.12705 (Simulation time: 0 hr 3 min 18 sec) 
Heartbeat CPU  0 instructions:  147000002 cycles:   91610197 heartbeat IPC: 1.03948 cumulative IPC: 1.12503 (Simulation time: 0 hr 3 min 20 sec) 
Heartbeat CPU  0 instructions:  148000000 cycles:   92997915 heartbeat IPC: 0.72061 cumulative IPC: 1.11203 (Simulation time: 0 hr 3 min 21 sec) 
Heartbeat CPU  0 instructions:  149000002 cycles:   94389035 heartbeat IPC: 0.71885 cumulative IPC: 1.09976 (Simulation time: 0 hr 3 min 23 sec) 
Heartbeat CPU  0 instructions:  150000002 cycles:   95785575 heartbeat IPC: 0.71606 cumulative IPC: 1.08809 (Simulation time: 0 hr 3 min 25 sec) 
Heartbeat CPU  0 instructions:  151000000 cycles:   97169612 heartbeat IPC: 0.72252 cumulative IPC: 1.07741 (Simulation time: 0 hr 3 min 26 sec) 
Heartbeat CPU  0 instructions:  152000000 cycles:   98562743 heartbeat IPC: 0.71781 cumulative IPC: 1.06713 (Simulation time: 0 hr 3 min 28 sec) 
Heartbeat CPU  0 instructions:  153000003 cycles:   99964561 heartbeat IPC: 0.71336 cumulative IPC: 1.05723 (Simulation time: 0 hr 3 min 30 sec) 
Heartbeat CPU  0 instructions:  154000002 cycles:  101360634 heartbeat IPC: 0.71629 cumulative IPC: 1.04800 (Simulation time: 0 hr 3 min 31 sec) 
Heartbeat CPU  0 instructions:  155000003 cycles:  102762330 heartbeat IPC: 0.71342 cumulative IPC: 1.03914 (Simulation time: 0 hr 3 min 33 sec) 
Heartbeat CPU  0 instructions:  156000000 cycles:  104154961 heartbeat IPC: 0.71806 cumulative IPC: 1.03090 (Simulation time: 0 hr 3 min 34 sec) 
Heartbeat CPU  0 instructions:  157000003 cycles:  105557366 heartbeat IPC: 0.71306 cumulative IPC: 1.02290 (Simulation time: 0 hr 3 min 36 sec) 
Heartbeat CPU  0 instructions:  158000000 cycles:  106949710 heartbeat IPC: 0.71821 cumulative IPC: 1.01548 (Simulation time: 0 hr 3 min 38 sec) 
Heartbeat CPU  0 instructions:  159000003 cycles:  108357448 heartbeat IPC: 0.71036 cumulative IPC: 1.00814 (Simulation time: 0 hr 3 min 39 sec) 
Heartbeat CPU  0 instructions:  160000000 cycles:  109769352 heartbeat IPC: 0.70826 cumulative IPC: 1.00107 (Simulation time: 0 hr 3 min 41 sec) 
Heartbeat CPU  0 instructions:  161000000 cycles:  111162871 heartbeat IPC: 0.71761 cumulative IPC: 0.99463 (Simulation time: 0 hr 3 min 42 sec) 
Heartbeat CPU  0 instructions:  162000000 cycles:  112575313 heartbeat IPC: 0.70799 cumulative IPC: 0.98818 (Simulation time: 0 hr 3 min 44 sec) 
Heartbeat CPU  0 instructions:  163000002 cycles:  113980874 heartbeat IPC: 0.71146 cumulative IPC: 0.98212 (Simulation time: 0 hr 3 min 46 sec) 
Heartbeat CPU  0 instructions:  164000000 cycles:  115366500 heartbeat IPC: 0.72169 cumulative IPC: 0.97661 (Simulation time: 0 hr 3 min 47 sec) 
Heartbeat CPU  0 instructions:  165000003 cycles:  116764001 heartbeat IPC: 0.71557 cumulative IPC: 0.97116 (Simulation time: 0 hr 3 min 49 sec) 
Heartbeat CPU  0 instructions:  166000001 cycles:  118167499 heartbeat IPC: 0.71250 cumulative IPC: 0.96585 (Simulation time: 0 hr 3 min 51 sec) 
Heartbeat CPU  0 instructions:  167000001 cycles:  119555731 heartbeat IPC: 0.72034 cumulative IPC: 0.96096 (Simulation time: 0 hr 3 min 52 sec) 
Heartbeat CPU  0 instructions:  168000000 cycles:  120957912 heartbeat IPC: 0.71317 cumulative IPC: 0.95607 (Simulation time: 0 hr 3 min 54 sec) 
Heartbeat CPU  0 instructions:  169000002 cycles:  122367125 heartbeat IPC: 0.70962 cumulative IPC: 0.95129 (Simulation time: 0 hr 3 min 56 sec) 
Heartbeat CPU  0 instructions:  170000002 cycles:  123756619 heartbeat IPC: 0.71969 cumulative IPC: 0.94693 (Simulation time: 0 hr 3 min 57 sec) 
Heartbeat CPU  0 instructions:  171000002 cycles:  125145666 heartbeat IPC: 0.71992 cumulative IPC: 0.94275 (Simulation time: 0 hr 3 min 59 sec) 
Heartbeat CPU  0 instructions:  172000000 cycles:  126538383 heartbeat IPC: 0.71802 cumulative IPC: 0.93866 (Simulation time: 0 hr 4 min 1 sec) 
Heartbeat CPU  0 instructions:  173000002 cycles:  127919492 heartbeat IPC: 0.72406 cumulative IPC: 0.93487 (Simulation time: 0 hr 4 min 2 sec) 
Heartbeat CPU  0 instructions:  174000003 cycles:  129316035 heartbeat IPC: 0.71605 cumulative IPC: 0.93102 (Simulation time: 0 hr 4 min 4 sec) 
Heartbeat CPU  0 instructions:  175000002 cycles:  130727237 heartbeat IPC: 0.70862 cumulative IPC: 0.92714 (Simulation time: 0 hr 4 min 5 sec) 
Heartbeat CPU  0 instructions:  176000000 cycles:  132122079 heartbeat IPC: 0.71693 cumulative IPC: 0.92358 (Simulation time: 0 hr 4 min 7 sec) 
Heartbeat CPU  0 instructions:  177000003 cycles:  133541752 heartbeat IPC: 0.70439 cumulative IPC: 0.91986 (Simulation time: 0 hr 4 min 9 sec) 
Heartbeat CPU  0 instructions:  178000000 cycles:  134944335 heartbeat IPC: 0.71297 cumulative IPC: 0.91645 (Simulation time: 0 hr 4 min 10 sec) 
Heartbeat CPU  0 instructions:  179000002 cycles:  136344072 heartbeat IPC: 0.71442 cumulative IPC: 0.91319 (Simulation time: 0 hr 4 min 12 sec) 
Heartbeat CPU  0 instructions:  180000000 cycles:  137735065 heartbeat IPC: 0.71891 cumulative IPC: 0.91011 (Simulation time: 0 hr 4 min 14 sec) 
Heartbeat CPU  0 instructions:  181000003 cycles:  139132123 heartbeat IPC: 0.71579 cumulative IPC: 0.90707 (Simulation time: 0 hr 4 min 15 sec) 
Heartbeat CPU  0 instructions:  182000002 cycles:  140536896 heartbeat IPC: 0.71186 cumulative IPC: 0.90405 (Simulation time: 0 hr 4 min 17 sec) 
Heartbeat CPU  0 instructions:  183000000 cycles:  141923122 heartbeat IPC: 0.72138 cumulative IPC: 0.90130 (Simulation time: 0 hr 4 min 19 sec) 
Heartbeat CPU  0 instructions:  184000000 cycles:  143321354 heartbeat IPC: 0.71519 cumulative IPC: 0.89851 (Simulation time: 0 hr 4 min 20 sec) 
Heartbeat CPU  0 instructions:  185000003 cycles:  144730906 heartbeat IPC: 0.70945 cumulative IPC: 0.89571 (Simulation time: 0 hr 4 min 22 sec) 
Heartbeat CPU  0 instructions:  186000001 cycles:  146117733 heartbeat IPC: 0.72107 cumulative IPC: 0.89319 (Simulation time: 0 hr 4 min 23 sec) 
Heartbeat CPU  0 instructions:  187000002 cycles:  147517040 heartbeat IPC: 0.71464 cumulative IPC: 0.89063 (Simulation time: 0 hr 4 min 25 sec) 
Heartbeat CPU  0 instructions:  188000000 cycles:  148916526 heartbeat IPC: 0.71455 cumulative IPC: 0.88815 (Simulation time: 0 hr 4 min 27 sec) 
Heartbeat CPU  0 instructions:  189000001 cycles:  150312511 heartbeat IPC: 0.71634 cumulative IPC: 0.88576 (Simulation time: 0 hr 4 min 28 sec) 
Heartbeat CPU  0 instructions:  190000003 cycles:  151712878 heartbeat IPC: 0.71410 cumulative IPC: 0.88340 (Simulation time: 0 hr 4 min 30 sec) 
Heartbeat CPU  0 instructions:  191000002 cycles:  153114786 heartbeat IPC: 0.71331 cumulative IPC: 0.88109 (Simulation time: 0 hr 4 min 32 sec) 
Heartbeat CPU  0 instructions:  192000000 cycles:  154464697 heartbeat IPC: 0.74079 cumulative IPC: 0.87928 (Simulation time: 0 hr 4 min 33 sec) 
Heartbeat CPU  0 instructions:  193000003 cycles:  155360731 heartbeat IPC: 1.11603 cumulative IPC: 0.88129 (Simulation time: 0 hr 4 min 35 sec) 
Heartbeat CPU  0 instructions:  194000001 cycles:  159059926 heartbeat IPC: 0.27033 cumulative IPC: 0.86060 (Simulation time: 0 hr 4 min 38 sec) 
Heartbeat CPU  0 instructions:  195000000 cycles:  162556755 heartbeat IPC: 0.28597 cumulative IPC: 0.84277 (Simulation time: 0 hr 4 min 41 sec) 
Heartbeat CPU  0 instructions:  196000000 cycles:  163266679 heartbeat IPC: 1.40860 cumulative IPC: 0.84631 (Simulation time: 0 hr 4 min 42 sec) 
Heartbeat CPU  0 instructions:  197000000 cycles:  163974289 heartbeat IPC: 1.41321 cumulative IPC: 0.84983 (Simulation time: 0 hr 4 min 44 sec) 
Heartbeat CPU  0 instructions:  198000003 cycles:  164682019 heartbeat IPC: 1.41297 cumulative IPC: 0.85330 (Simulation time: 0 hr 4 min 45 sec) 
Heartbeat CPU  0 instructions:  199000002 cycles:  165408741 heartbeat IPC: 1.37604 cumulative IPC: 0.85659 (Simulation time: 0 hr 4 min 47 sec) 
Heartbeat CPU  0 instructions:  200000000 cycles:  166136497 heartbeat IPC: 1.37408 cumulative IPC: 0.85982 (Simulation time: 0 hr 4 min 49 sec) 
Finished CPU 0 instructions: 100000000 cycles: 116302829 cumulative IPC: 0.85982 (Simulation time: 0 hr 4 min 49 sec) 

ChampSim completed all CPUs

[ROI Statistics]
Core_0_instructions 100000000
Core_0_cycles 116302829
Core_0_IPC 0.85982

Core_0_branch_prediction_accuracy 99.15344
Core_0_branch_MPKI 0.35029
Core_0_average_ROB_occupancy_at_mispredict 249.78464

Core_0_L1D_total_access 48429196
Core_0_L1D_total_hit 46463454
Core_0_L1D_total_miss 1965742
Core_0_L1D_loads 23115130
Core_0_L1D_load_hit 22440984
Core_0_L1D_load_miss 674146
Core_0_L1D_RFOs 4489590
Core_0_L1D_RFO_hit 4174790
Core_0_L1D_RFO_miss 314800
Core_0_L1D_prefetches 20824476
Core_0_L1D_prefetch_hit 19847680
Core_0_L1D_prefetch_miss 976796
Core_0_L1D_writebacks 0
Core_0_L1D_writeback_hit 0
Core_0_L1D_writeback_miss 0
Core_0_L1D_prefetch_requested 59099391
Core_0_L1D_prefetch_issued 56951694
Core_0_L1D_prefetch_useful 1495892
Core_0_L1D_prefetch_useless 1257702
Core_0_L1D_prefetch_late 284218
Core_0_L1D_average_miss_latency 16279520.45183

Core_0_L1I_total_access 22729702
Core_0_L1I_total_hit 22729482
Core_0_L1I_total_miss 220
Core_0_L1I_loads 22729702
Core_0_L1I_load_hit 22729482
Core_0_L1I_load_miss 220
Core_0_L1I_RFOs 0
Core_0_L1I_RFO_hit 0
Core_0_L1I_RFO_miss 0
Core_0_L1I_prefetches 0
Core_0_L1I_prefetch_hit 0
Core_0_L1I_prefetch_miss 0
Core_0_L1I_writebacks 0
Core_0_L1I_writeback_hit 0
Core_0_L1I_writeback_miss 0
Core_0_L1I_prefetch_requested 0
Core_0_L1I_prefetch_issued 0
Core_0_L1I_prefetch_useful 0
Core_0_L1I_prefetch_useless 0
Core_0_L1I_prefetch_late 0
Core_0_L1I_average_miss_latency 260.11818

Core_0_L2C_total_access 2524625
Core_0_L2C_total_hit 1478866
Core_0_L2C_total_miss 1045759
Core_0_L2C_loads 391251
Core_0_L2C_load_hit 328846
Core_0_L2C_load_miss 62405
Core_0_L2C_RFOs 314643
Core_0_L2C_RFO_hit 122980
Core_0_L2C_RFO_miss 191663
Core_0_L2C_prefetches 1259899
Core_0_L2C_prefetch_hit 468333
Core_0_L2C_prefetch_miss 791566
Core_0_L2C_writebacks 558832
Core_0_L2C_writeback_hit 558707
Core_0_L2C_writeback_miss 125
Core_0_L2C_prefetch_requested 0
Core_0_L2C_prefetch_issued 0
Core_0_L2C_prefetch_useful 153744
Core_0_L2C_prefetch_useless 1129316
Core_0_L2C_prefetch_late 0
Core_0_L2C_average_miss_latency 252.05449

Core_0_LLC_total_access 1452169
Core_0_LLC_total_hit 497710
Core_0_LLC_total_miss 954459
Core_0_LLC_loads 62405
Core_0_LLC_load_hit 15864
Core_0_LLC_load_miss 46541
Core_0_LLC_RFOs 191663
Core_0_LLC_RFO_hit 9339
Core_0_LLC_RFO_miss 182324
Core_0_LLC_prefetches 791566
Core_0_LLC_prefetch_hit 67468
Core_0_LLC_prefetch_miss 724098
Core_0_LLC_writebacks 406535
Core_0_LLC_writeback_hit 405039
Core_0_LLC_writeback_miss 1496
Core_0_LLC_prefetch_requested 0
Core_0_LLC_prefetch_issued 0
Core_0_LLC_prefetch_useful 33934
Core_0_LLC_prefetch_useless 1027237
Core_0_LLC_prefetch_late 0
Core_0_LLC_average_miss_latency 241.83250

Core_0_major_page_fault 0
Core_0_minor_page_fault 15627

CPU 0 L1D next line prefetcher final stats
Channel_0_RQ_row_buffer_hit 318072
Channel_0_RQ_row_buffer_miss 634890
Channel_0_WQ_row_buffer_hit 116636
Channel_0_WQ_row_buffer_miss 269336
Channel_0_WQ_full 0
Channel_0_dbus_congested 388829

avg_congested_cycle 10
