*************************************************
   ChampSim Multicore Out-of-Order Simulator
   Last compiled: Dec 23 2023 17:02:07
*************************************************

trace_0 ./test_trace/437.leslie3d-134B.champsimtrace.xz
CPU 0 L1D next line prefetcher
Initialize DRRIP state
Assign rand_sets[0]: 454  LLC: 2048
rand_sets[0]: 454
Assign rand_sets[1]: 1662  LLC: 2048
rand_sets[1]: 1662
Assign rand_sets[2]: 1921  LLC: 2048
rand_sets[2]: 1921
Assign rand_sets[3]: 1131  LLC: 2048
rand_sets[3]: 1131
Assign rand_sets[4]: 331  LLC: 2048
rand_sets[4]: 331
Assign rand_sets[5]: 1531  LLC: 2048
rand_sets[5]: 1531
Assign rand_sets[6]: 482  LLC: 2048
rand_sets[6]: 482
Assign rand_sets[7]: 1275  LLC: 2048
rand_sets[7]: 1275
Assign rand_sets[8]: 1876  LLC: 2048
rand_sets[8]: 1876
Assign rand_sets[9]: 2038  LLC: 2048
rand_sets[9]: 2038
Assign rand_sets[10]: 701  LLC: 2048
rand_sets[10]: 701
Assign rand_sets[11]: 479  LLC: 2048
rand_sets[11]: 479
Assign rand_sets[12]: 892  LLC: 2048
rand_sets[12]: 892
Assign rand_sets[13]: 1820  LLC: 2048
rand_sets[13]: 1820
Assign rand_sets[14]: 1505  LLC: 2048
rand_sets[14]: 1505
Assign rand_sets[15]: 1159  LLC: 2048
rand_sets[15]: 1159
Assign rand_sets[16]: 513  LLC: 2048
rand_sets[16]: 513
Assign rand_sets[17]: 703  LLC: 2048
rand_sets[17]: 703
Assign rand_sets[18]: 561  LLC: 2048
rand_sets[18]: 561
Assign rand_sets[19]: 990  LLC: 2048
rand_sets[19]: 990
Assign rand_sets[20]: 342  LLC: 2048
rand_sets[20]: 342
Assign rand_sets[21]: 882  LLC: 2048
rand_sets[21]: 882
Assign rand_sets[22]: 15  LLC: 2048
rand_sets[22]: 15
Assign rand_sets[23]: 71  LLC: 2048
rand_sets[23]: 71
Assign rand_sets[24]: 1127  LLC: 2048
rand_sets[24]: 1127
Assign rand_sets[25]: 1382  LLC: 2048
rand_sets[25]: 1382
Assign rand_sets[26]: 647  LLC: 2048
rand_sets[26]: 647
Assign rand_sets[27]: 857  LLC: 2048
rand_sets[27]: 857
Assign rand_sets[28]: 1450  LLC: 2048
rand_sets[28]: 1450
Assign rand_sets[29]: 1160  LLC: 2048
rand_sets[29]: 1160
Assign rand_sets[30]: 1852  LLC: 2048
rand_sets[30]: 1852
Assign rand_sets[31]: 1881  LLC: 2048
rand_sets[31]: 1881
Assign rand_sets[32]: 1770  LLC: 2048
rand_sets[32]: 1770
Assign rand_sets[33]: 1622  LLC: 2048
rand_sets[33]: 1622
Assign rand_sets[34]: 275  LLC: 2048
rand_sets[34]: 275
Assign rand_sets[35]: 635  LLC: 2048
rand_sets[35]: 635
Assign rand_sets[36]: 466  LLC: 2048
rand_sets[36]: 466
Assign rand_sets[37]: 1413  LLC: 2048
rand_sets[37]: 1413
Assign rand_sets[38]: 417  LLC: 2048
rand_sets[38]: 417
Assign rand_sets[39]: 472  LLC: 2048
rand_sets[39]: 472
Assign rand_sets[40]: 1340  LLC: 2048
rand_sets[40]: 1340
Assign rand_sets[41]: 852  LLC: 2048
rand_sets[41]: 852
Assign rand_sets[42]: 1365  LLC: 2048
rand_sets[42]: 1365
Assign rand_sets[43]: 47  LLC: 2048
rand_sets[43]: 47
Assign rand_sets[44]: 823  LLC: 2048
rand_sets[44]: 823
Assign rand_sets[45]: 686  LLC: 2048
rand_sets[45]: 686
Assign rand_sets[46]: 1637  LLC: 2048
rand_sets[46]: 1637
Assign rand_sets[47]: 1115  LLC: 2048
rand_sets[47]: 1115
Assign rand_sets[48]: 986  LLC: 2048
rand_sets[48]: 986
Assign rand_sets[49]: 258  LLC: 2048
rand_sets[49]: 258
Assign rand_sets[50]: 633  LLC: 2048
rand_sets[50]: 633
Assign rand_sets[51]: 920  LLC: 2048
rand_sets[51]: 920
Assign rand_sets[52]: 204  LLC: 2048
rand_sets[52]: 204
Assign rand_sets[53]: 227  LLC: 2048
rand_sets[53]: 227
Assign rand_sets[54]: 1818  LLC: 2048
rand_sets[54]: 1818
Assign rand_sets[55]: 886  LLC: 2048
rand_sets[55]: 886
Assign rand_sets[56]: 1422  LLC: 2048
rand_sets[56]: 1422
Assign rand_sets[57]: 607  LLC: 2048
rand_sets[57]: 607
Assign rand_sets[58]: 217  LLC: 2048
rand_sets[58]: 217
Assign rand_sets[59]: 1945  LLC: 2048
rand_sets[59]: 1945
Assign rand_sets[60]: 143  LLC: 2048
rand_sets[60]: 143
Assign rand_sets[61]: 1311  LLC: 2048
rand_sets[61]: 1311
Assign rand_sets[62]: 319  LLC: 2048
rand_sets[62]: 319
Assign rand_sets[63]: 1846  LLC: 2048
rand_sets[63]: 1846
warmup_instructions 100000000
simulation_instructions 100000000
champsim_seed 218

num_cpus 1
cpu_freq 4000
dram_io_freq 2400
page_size 4096
block_size 64
max_read_per_cycle 8
max_fill_per_cycle 1
dram_channels 1
dram_ranks 1
dram_banks 8
dram_rows 65536
dram_columns 128
dram_row_size 8
dram_size 4096
dram_pages 1048576

fetch_width 6
decode_width 6
exec_width 4
lq_width 2
sq_width 2
retire_width 4
scheduler_size 128
branch_mispredict_penalty 20
rob_size 256
lq_size 72
sq_size 56
num_instr_destinations_sparc 4
num_instr_destinations 2
num_instr_sources 4

itlb_set 16
itlb_way 8
itlb_rq_size 16
itlb_wq_size 16
itlb_pq_size 0
itlb_mshr_size 8
itlb_latency 1

dtlb_set 16
dtlb_way 4
dtlb_rq_size 16
dtlb_wq_size 16
dtlb_pq_size 0
dtlb_mshr_size 8
dtlb_latency 1

stlb_set 128
stlb_way 12
stlb_rq_size 32
stlb_wq_size 32
stlb_pq_size 0
stlb_mshr_size 16
stlb_latency 8

l1i_size 32
l1i_set 64
l1i_way 8
l1i_rq_size 64
l1i_wq_size 64
l1i_pq_size 8
l1i_mshr_size 8
l1i_latency 1

l1d_size 32
l1d_set 64
l1d_way 8
l1d_rq_size 64
l1d_wq_size 64
l1d_pq_size 8
l1d_mshr_size 16
l1d_latency 4

l2c_size 512
l2c_set 1024
l2c_way 8
l2c_rq_size 32
l2c_wq_size 32
l2c_pq_size 16
l2c_mshr_size 32
l2c_latency 10

llc_size 2048
llc_set 2048
llc_way 16
llc_rq_size 32
llc_wq_size 32
llc_pq_size 32
llc_mshr_size 64
llc_latency 20

dram_channel_width 8
dram_wq_size 64
dram_rq_size 64
tRP 15
tRCD 15
tCAS 12.5
dram_dbus_turn_around_time 30
dram_write_high_wm 56
dram_write_low_wm 48
min_dram_writes_per_switch 16
dram_mtps 2400
dram_dbus_return_time 13


Heartbeat CPU  0 instructions:    1000002 cycles:     502365 heartbeat IPC: 1.99059 cumulative IPC: 1.99059 (Simulation time: 0 hr 0 min 1 sec) 
Heartbeat CPU  0 instructions:    2000001 cycles:     993946 heartbeat IPC: 2.03425 cumulative IPC: 2.01218 (Simulation time: 0 hr 0 min 3 sec) 
Heartbeat CPU  0 instructions:    3000001 cycles:    1490645 heartbeat IPC: 2.01329 cumulative IPC: 2.01255 (Simulation time: 0 hr 0 min 4 sec) 
Heartbeat CPU  0 instructions:    4000000 cycles:    1992232 heartbeat IPC: 1.99367 cumulative IPC: 2.00780 (Simulation time: 0 hr 0 min 5 sec) 
Heartbeat CPU  0 instructions:    5000000 cycles:    2494070 heartbeat IPC: 1.99267 cumulative IPC: 2.00476 (Simulation time: 0 hr 0 min 7 sec) 
Heartbeat CPU  0 instructions:    6000001 cycles:    2995820 heartbeat IPC: 1.99303 cumulative IPC: 2.00279 (Simulation time: 0 hr 0 min 8 sec) 
Heartbeat CPU  0 instructions:    7000000 cycles:    3482647 heartbeat IPC: 2.05412 cumulative IPC: 2.00997 (Simulation time: 0 hr 0 min 9 sec) 
Heartbeat CPU  0 instructions:    8000000 cycles:    3984365 heartbeat IPC: 1.99315 cumulative IPC: 2.00785 (Simulation time: 0 hr 0 min 10 sec) 
Heartbeat CPU  0 instructions:    9000001 cycles:    4485312 heartbeat IPC: 1.99622 cumulative IPC: 2.00655 (Simulation time: 0 hr 0 min 12 sec) 
Heartbeat CPU  0 instructions:   10000000 cycles:    4986984 heartbeat IPC: 1.99333 cumulative IPC: 2.00522 (Simulation time: 0 hr 0 min 13 sec) 
Heartbeat CPU  0 instructions:   11000001 cycles:    5480831 heartbeat IPC: 2.02492 cumulative IPC: 2.00700 (Simulation time: 0 hr 0 min 14 sec) 
Heartbeat CPU  0 instructions:   12000000 cycles:    5975556 heartbeat IPC: 2.02132 cumulative IPC: 2.00818 (Simulation time: 0 hr 0 min 16 sec) 
Heartbeat CPU  0 instructions:   13000003 cycles:    6477145 heartbeat IPC: 1.99367 cumulative IPC: 2.00706 (Simulation time: 0 hr 0 min 17 sec) 
Heartbeat CPU  0 instructions:   14000001 cycles:    6978549 heartbeat IPC: 1.99440 cumulative IPC: 2.00615 (Simulation time: 0 hr 0 min 18 sec) 
Heartbeat CPU  0 instructions:   15000003 cycles:    7479913 heartbeat IPC: 1.99456 cumulative IPC: 2.00537 (Simulation time: 0 hr 0 min 19 sec) 
Heartbeat CPU  0 instructions:   16000000 cycles:    7967045 heartbeat IPC: 2.05283 cumulative IPC: 2.00827 (Simulation time: 0 hr 0 min 21 sec) 
Heartbeat CPU  0 instructions:   17000001 cycles:    8468750 heartbeat IPC: 1.99321 cumulative IPC: 2.00738 (Simulation time: 0 hr 0 min 22 sec) 
Heartbeat CPU  0 instructions:   18000001 cycles:    8970065 heartbeat IPC: 1.99475 cumulative IPC: 2.00667 (Simulation time: 0 hr 0 min 23 sec) 
Heartbeat CPU  0 instructions:   19000003 cycles:    9471228 heartbeat IPC: 1.99536 cumulative IPC: 2.00608 (Simulation time: 0 hr 0 min 25 sec) 
Heartbeat CPU  0 instructions:   20000000 cycles:    9967766 heartbeat IPC: 2.01394 cumulative IPC: 2.00647 (Simulation time: 0 hr 0 min 26 sec) 
Heartbeat CPU  0 instructions:   21000001 cycles:   10459739 heartbeat IPC: 2.03263 cumulative IPC: 2.00770 (Simulation time: 0 hr 0 min 28 sec) 
Heartbeat CPU  0 instructions:   22000003 cycles:   10961551 heartbeat IPC: 1.99278 cumulative IPC: 2.00702 (Simulation time: 0 hr 0 min 29 sec) 
Heartbeat CPU  0 instructions:   23000001 cycles:   11463681 heartbeat IPC: 1.99151 cumulative IPC: 2.00634 (Simulation time: 0 hr 0 min 31 sec) 
Heartbeat CPU  0 instructions:   24000000 cycles:   11965184 heartbeat IPC: 1.99400 cumulative IPC: 2.00582 (Simulation time: 0 hr 0 min 32 sec) 
Heartbeat CPU  0 instructions:   25000003 cycles:   12451693 heartbeat IPC: 2.05547 cumulative IPC: 2.00776 (Simulation time: 0 hr 0 min 33 sec) 
Heartbeat CPU  0 instructions:   26000001 cycles:   12953520 heartbeat IPC: 1.99271 cumulative IPC: 2.00718 (Simulation time: 0 hr 0 min 35 sec) 
Heartbeat CPU  0 instructions:   27000003 cycles:   13455490 heartbeat IPC: 1.99215 cumulative IPC: 2.00662 (Simulation time: 0 hr 0 min 36 sec) 
Heartbeat CPU  0 instructions:   28000000 cycles:   13957298 heartbeat IPC: 1.99279 cumulative IPC: 2.00612 (Simulation time: 0 hr 0 min 37 sec) 
Heartbeat CPU  0 instructions:   29000002 cycles:   14454916 heartbeat IPC: 2.00958 cumulative IPC: 2.00624 (Simulation time: 0 hr 0 min 39 sec) 
Heartbeat CPU  0 instructions:   30000000 cycles:   14945245 heartbeat IPC: 2.03944 cumulative IPC: 2.00733 (Simulation time: 0 hr 0 min 40 sec) 
Heartbeat CPU  0 instructions:   31000002 cycles:   15446798 heartbeat IPC: 1.99381 cumulative IPC: 2.00689 (Simulation time: 0 hr 0 min 41 sec) 
Heartbeat CPU  0 instructions:   32000000 cycles:   15948239 heartbeat IPC: 1.99425 cumulative IPC: 2.00649 (Simulation time: 0 hr 0 min 43 sec) 
Heartbeat CPU  0 instructions:   33000001 cycles:   16450225 heartbeat IPC: 1.99209 cumulative IPC: 2.00605 (Simulation time: 0 hr 0 min 44 sec) 
Heartbeat CPU  0 instructions:   34000003 cycles:   16938948 heartbeat IPC: 2.04615 cumulative IPC: 2.00721 (Simulation time: 0 hr 0 min 45 sec) 
Heartbeat CPU  0 instructions:   35000000 cycles:   17438219 heartbeat IPC: 2.00291 cumulative IPC: 2.00709 (Simulation time: 0 hr 0 min 47 sec) 
Heartbeat CPU  0 instructions:   36000000 cycles:   17939485 heartbeat IPC: 1.99495 cumulative IPC: 2.00675 (Simulation time: 0 hr 0 min 48 sec) 
Heartbeat CPU  0 instructions:   37000003 cycles:   18441191 heartbeat IPC: 1.99321 cumulative IPC: 2.00638 (Simulation time: 0 hr 0 min 49 sec) 
Heartbeat CPU  0 instructions:   38000003 cycles:   18941988 heartbeat IPC: 1.99682 cumulative IPC: 2.00613 (Simulation time: 0 hr 0 min 51 sec) 
Heartbeat CPU  0 instructions:   39000003 cycles:   19429501 heartbeat IPC: 2.05123 cumulative IPC: 2.00726 (Simulation time: 0 hr 0 min 52 sec) 
Heartbeat CPU  0 instructions:   40000000 cycles:   19930588 heartbeat IPC: 1.99566 cumulative IPC: 2.00697 (Simulation time: 0 hr 0 min 53 sec) 
Heartbeat CPU  0 instructions:   41000001 cycles:   20432376 heartbeat IPC: 1.99288 cumulative IPC: 2.00662 (Simulation time: 0 hr 0 min 55 sec) 
Heartbeat CPU  0 instructions:   42000002 cycles:   20934271 heartbeat IPC: 1.99245 cumulative IPC: 2.00628 (Simulation time: 0 hr 0 min 56 sec) 
Heartbeat CPU  0 instructions:   43000003 cycles:   21425719 heartbeat IPC: 2.03481 cumulative IPC: 2.00693 (Simulation time: 0 hr 0 min 57 sec) 
Heartbeat CPU  0 instructions:   44000000 cycles:   21922595 heartbeat IPC: 2.01257 cumulative IPC: 2.00706 (Simulation time: 0 hr 0 min 58 sec) 
Heartbeat CPU  0 instructions:   45000001 cycles:   22424536 heartbeat IPC: 1.99227 cumulative IPC: 2.00673 (Simulation time: 0 hr 1 min 0 sec) 
Heartbeat CPU  0 instructions:   46000000 cycles:   22925895 heartbeat IPC: 1.99458 cumulative IPC: 2.00646 (Simulation time: 0 hr 1 min 1 sec) 
Heartbeat CPU  0 instructions:   47000002 cycles:   23427702 heartbeat IPC: 1.99280 cumulative IPC: 2.00617 (Simulation time: 0 hr 1 min 2 sec) 
Heartbeat CPU  0 instructions:   48000000 cycles:   23914291 heartbeat IPC: 2.05512 cumulative IPC: 2.00717 (Simulation time: 0 hr 1 min 4 sec) 
Heartbeat CPU  0 instructions:   49000002 cycles:   24416132 heartbeat IPC: 1.99267 cumulative IPC: 2.00687 (Simulation time: 0 hr 1 min 5 sec) 
Heartbeat CPU  0 instructions:   50000003 cycles:   24917483 heartbeat IPC: 1.99461 cumulative IPC: 2.00662 (Simulation time: 0 hr 1 min 6 sec) 
Heartbeat CPU  0 instructions:   51000003 cycles:   25418755 heartbeat IPC: 1.99492 cumulative IPC: 2.00639 (Simulation time: 0 hr 1 min 8 sec) 
Heartbeat CPU  0 instructions:   52000000 cycles:   25912228 heartbeat IPC: 2.02645 cumulative IPC: 2.00677 (Simulation time: 0 hr 1 min 9 sec) 
Heartbeat CPU  0 instructions:   53000001 cycles:   26407276 heartbeat IPC: 2.02001 cumulative IPC: 2.00702 (Simulation time: 0 hr 1 min 10 sec) 
Heartbeat CPU  0 instructions:   54000003 cycles:   26908890 heartbeat IPC: 1.99357 cumulative IPC: 2.00677 (Simulation time: 0 hr 1 min 12 sec) 
Heartbeat CPU  0 instructions:   55000003 cycles:   27410387 heartbeat IPC: 1.99403 cumulative IPC: 2.00654 (Simulation time: 0 hr 1 min 13 sec) 
Heartbeat CPU  0 instructions:   56000000 cycles:   27911570 heartbeat IPC: 1.99527 cumulative IPC: 2.00634 (Simulation time: 0 hr 1 min 14 sec) 
Heartbeat CPU  0 instructions:   57000002 cycles:   28398545 heartbeat IPC: 2.05350 cumulative IPC: 2.00715 (Simulation time: 0 hr 1 min 16 sec) 
Heartbeat CPU  0 instructions:   58000003 cycles:   28900072 heartbeat IPC: 1.99391 cumulative IPC: 2.00692 (Simulation time: 0 hr 1 min 17 sec) 
Heartbeat CPU  0 instructions:   59000001 cycles:   29401688 heartbeat IPC: 1.99355 cumulative IPC: 2.00669 (Simulation time: 0 hr 1 min 18 sec) 
Heartbeat CPU  0 instructions:   60000000 cycles:   29902811 heartbeat IPC: 1.99552 cumulative IPC: 2.00650 (Simulation time: 0 hr 1 min 20 sec) 
Heartbeat CPU  0 instructions:   61000000 cycles:   30398790 heartbeat IPC: 2.01621 cumulative IPC: 2.00666 (Simulation time: 0 hr 1 min 21 sec) 
Heartbeat CPU  0 instructions:   62000001 cycles:   30891073 heartbeat IPC: 2.03135 cumulative IPC: 2.00705 (Simulation time: 0 hr 1 min 22 sec) 
Heartbeat CPU  0 instructions:   63000001 cycles:   31392823 heartbeat IPC: 1.99302 cumulative IPC: 2.00683 (Simulation time: 0 hr 1 min 24 sec) 
Heartbeat CPU  0 instructions:   64000000 cycles:   31894870 heartbeat IPC: 1.99184 cumulative IPC: 2.00659 (Simulation time: 0 hr 1 min 25 sec) 
Heartbeat CPU  0 instructions:   65000000 cycles:   32396550 heartbeat IPC: 1.99330 cumulative IPC: 2.00639 (Simulation time: 0 hr 1 min 26 sec) 
Heartbeat CPU  0 instructions:   66000003 cycles:   32882755 heartbeat IPC: 2.05675 cumulative IPC: 2.00713 (Simulation time: 0 hr 1 min 28 sec) 
Heartbeat CPU  0 instructions:   67000000 cycles:   33384569 heartbeat IPC: 1.99276 cumulative IPC: 2.00692 (Simulation time: 0 hr 1 min 29 sec) 
Heartbeat CPU  0 instructions:   68000000 cycles:   33886332 heartbeat IPC: 1.99297 cumulative IPC: 2.00671 (Simulation time: 0 hr 1 min 30 sec) 
Heartbeat CPU  0 instructions:   69000001 cycles:   34388352 heartbeat IPC: 1.99195 cumulative IPC: 2.00649 (Simulation time: 0 hr 1 min 31 sec) 
Heartbeat CPU  0 instructions:   70000000 cycles:   34885645 heartbeat IPC: 2.01089 cumulative IPC: 2.00656 (Simulation time: 0 hr 1 min 33 sec) 
Heartbeat CPU  0 instructions:   71000001 cycles:   35376130 heartbeat IPC: 2.03880 cumulative IPC: 2.00700 (Simulation time: 0 hr 1 min 34 sec) 
Heartbeat CPU  0 instructions:   72000000 cycles:   35878004 heartbeat IPC: 1.99253 cumulative IPC: 2.00680 (Simulation time: 0 hr 1 min 35 sec) 
Heartbeat CPU  0 instructions:   73000002 cycles:   36379108 heartbeat IPC: 1.99560 cumulative IPC: 2.00665 (Simulation time: 0 hr 1 min 37 sec) 
Heartbeat CPU  0 instructions:   74000003 cycles:   36880847 heartbeat IPC: 1.99307 cumulative IPC: 2.00646 (Simulation time: 0 hr 1 min 38 sec) 
Heartbeat CPU  0 instructions:   75000001 cycles:   37369550 heartbeat IPC: 2.04623 cumulative IPC: 2.00698 (Simulation time: 0 hr 1 min 39 sec) 
Heartbeat CPU  0 instructions:   76000000 cycles:   37868925 heartbeat IPC: 2.00250 cumulative IPC: 2.00692 (Simulation time: 0 hr 1 min 41 sec) 
Heartbeat CPU  0 instructions:   77000000 cycles:   38370673 heartbeat IPC: 1.99303 cumulative IPC: 2.00674 (Simulation time: 0 hr 1 min 42 sec) 
Heartbeat CPU  0 instructions:   78000003 cycles:   38872149 heartbeat IPC: 1.99412 cumulative IPC: 2.00658 (Simulation time: 0 hr 1 min 43 sec) 
Heartbeat CPU  0 instructions:   79000001 cycles:   39372506 heartbeat IPC: 1.99857 cumulative IPC: 2.00648 (Simulation time: 0 hr 1 min 45 sec) 
Heartbeat CPU  0 instructions:   80000000 cycles:   39861025 heartbeat IPC: 2.04700 cumulative IPC: 2.00697 (Simulation time: 0 hr 1 min 46 sec) 
Heartbeat CPU  0 instructions:   81000003 cycles:   40362000 heartbeat IPC: 1.99611 cumulative IPC: 2.00684 (Simulation time: 0 hr 1 min 47 sec) 
Heartbeat CPU  0 instructions:   82000003 cycles:   40863532 heartbeat IPC: 1.99389 cumulative IPC: 2.00668 (Simulation time: 0 hr 1 min 48 sec) 
Heartbeat CPU  0 instructions:   83000001 cycles:   41365184 heartbeat IPC: 1.99341 cumulative IPC: 2.00652 (Simulation time: 0 hr 1 min 50 sec) 
Heartbeat CPU  0 instructions:   84000000 cycles:   41856402 heartbeat IPC: 2.03575 cumulative IPC: 2.00686 (Simulation time: 0 hr 1 min 51 sec) 
Heartbeat CPU  0 instructions:   85000002 cycles:   42353868 heartbeat IPC: 2.01019 cumulative IPC: 2.00690 (Simulation time: 0 hr 1 min 52 sec) 
Heartbeat CPU  0 instructions:   86000002 cycles:   42855748 heartbeat IPC: 1.99251 cumulative IPC: 2.00673 (Simulation time: 0 hr 1 min 54 sec) 
Heartbeat CPU  0 instructions:   87000002 cycles:   43357279 heartbeat IPC: 1.99389 cumulative IPC: 2.00658 (Simulation time: 0 hr 1 min 55 sec) 
Heartbeat CPU  0 instructions:   88000000 cycles:   43859140 heartbeat IPC: 1.99258 cumulative IPC: 2.00642 (Simulation time: 0 hr 1 min 56 sec) 
Heartbeat CPU  0 instructions:   89000003 cycles:   44345780 heartbeat IPC: 2.05491 cumulative IPC: 2.00696 (Simulation time: 0 hr 1 min 58 sec) 
Heartbeat CPU  0 instructions:   90000002 cycles:   44847828 heartbeat IPC: 1.99184 cumulative IPC: 2.00679 (Simulation time: 0 hr 1 min 59 sec) 
Heartbeat CPU  0 instructions:   91000000 cycles:   45349190 heartbeat IPC: 1.99456 cumulative IPC: 2.00665 (Simulation time: 0 hr 2 min 0 sec) 
Heartbeat CPU  0 instructions:   92000000 cycles:   45850829 heartbeat IPC: 1.99347 cumulative IPC: 2.00651 (Simulation time: 0 hr 2 min 2 sec) 
Heartbeat CPU  0 instructions:   93000002 cycles:   46343635 heartbeat IPC: 2.02920 cumulative IPC: 2.00675 (Simulation time: 0 hr 2 min 3 sec) 
Heartbeat CPU  0 instructions:   94000003 cycles:   46839367 heartbeat IPC: 2.01722 cumulative IPC: 2.00686 (Simulation time: 0 hr 2 min 4 sec) 
Heartbeat CPU  0 instructions:   95000003 cycles:   47340927 heartbeat IPC: 1.99378 cumulative IPC: 2.00672 (Simulation time: 0 hr 2 min 5 sec) 
Heartbeat CPU  0 instructions:   96000000 cycles:   47842539 heartbeat IPC: 1.99357 cumulative IPC: 2.00658 (Simulation time: 0 hr 2 min 7 sec) 
Heartbeat CPU  0 instructions:   97000000 cycles:   48343868 heartbeat IPC: 1.99470 cumulative IPC: 2.00646 (Simulation time: 0 hr 2 min 8 sec) 
Heartbeat CPU  0 instructions:   98000000 cycles:   48830566 heartbeat IPC: 2.05466 cumulative IPC: 2.00694 (Simulation time: 0 hr 2 min 9 sec) 
Heartbeat CPU  0 instructions:   99000002 cycles:   49332183 heartbeat IPC: 1.99356 cumulative IPC: 2.00680 (Simulation time: 0 hr 2 min 11 sec) 
Heartbeat CPU  0 instructions:  100000000 cycles:   49833737 heartbeat IPC: 1.99380 cumulative IPC: 2.00667 (Simulation time: 0 hr 2 min 12 sec) 

Warmup complete CPU  0 instructions:  100000003 cycles:   49833738 (Simulation time: 0 hr 2 min 12 sec) 

Heartbeat CPU  0 instructions:  101000001 cycles:   50719090 heartbeat IPC: 1.12949 cumulative IPC: 1.12949 (Simulation time: 0 hr 2 min 13 sec) 
Heartbeat CPU  0 instructions:  102000002 cycles:   51602394 heartbeat IPC: 1.13211 cumulative IPC: 1.13080 (Simulation time: 0 hr 2 min 15 sec) 
Heartbeat CPU  0 instructions:  103000001 cycles:   52500136 heartbeat IPC: 1.11390 cumulative IPC: 1.12511 (Simulation time: 0 hr 2 min 16 sec) 
Heartbeat CPU  0 instructions:  104000000 cycles:   53403311 heartbeat IPC: 1.10720 cumulative IPC: 1.12058 (Simulation time: 0 hr 2 min 18 sec) 
Heartbeat CPU  0 instructions:  105000003 cycles:   54280248 heartbeat IPC: 1.14034 cumulative IPC: 1.12448 (Simulation time: 0 hr 2 min 19 sec) 
Heartbeat CPU  0 instructions:  106000001 cycles:   55168050 heartbeat IPC: 1.12638 cumulative IPC: 1.12479 (Simulation time: 0 hr 2 min 21 sec) 
Heartbeat CPU  0 instructions:  107000002 cycles:   56052670 heartbeat IPC: 1.13043 cumulative IPC: 1.12560 (Simulation time: 0 hr 2 min 22 sec) 
Heartbeat CPU  0 instructions:  108000000 cycles:   56948898 heartbeat IPC: 1.11579 cumulative IPC: 1.12436 (Simulation time: 0 hr 2 min 24 sec) 
Heartbeat CPU  0 instructions:  109000003 cycles:   57851443 heartbeat IPC: 1.10798 cumulative IPC: 1.12252 (Simulation time: 0 hr 2 min 25 sec) 
Heartbeat CPU  0 instructions:  110000001 cycles:   58734607 heartbeat IPC: 1.13229 cumulative IPC: 1.12349 (Simulation time: 0 hr 2 min 27 sec) 
Heartbeat CPU  0 instructions:  111000003 cycles:   59606535 heartbeat IPC: 1.14689 cumulative IPC: 1.12557 (Simulation time: 0 hr 2 min 28 sec) 
Heartbeat CPU  0 instructions:  112000000 cycles:   60500321 heartbeat IPC: 1.11883 cumulative IPC: 1.12501 (Simulation time: 0 hr 2 min 30 sec) 
Heartbeat CPU  0 instructions:  113000001 cycles:   61396888 heartbeat IPC: 1.11537 cumulative IPC: 1.12426 (Simulation time: 0 hr 2 min 31 sec) 
Heartbeat CPU  0 instructions:  114000002 cycles:   62294933 heartbeat IPC: 1.11353 cumulative IPC: 1.12349 (Simulation time: 0 hr 2 min 33 sec) 
Heartbeat CPU  0 instructions:  115000000 cycles:   63184514 heartbeat IPC: 1.12412 cumulative IPC: 1.12353 (Simulation time: 0 hr 2 min 34 sec) 
Heartbeat CPU  0 instructions:  116000000 cycles:   64063873 heartbeat IPC: 1.13719 cumulative IPC: 1.12437 (Simulation time: 0 hr 2 min 35 sec) 
Heartbeat CPU  0 instructions:  117000002 cycles:   64955623 heartbeat IPC: 1.12139 cumulative IPC: 1.12420 (Simulation time: 0 hr 2 min 37 sec) 
Heartbeat CPU  0 instructions:  118000001 cycles:   65847626 heartbeat IPC: 1.12107 cumulative IPC: 1.12402 (Simulation time: 0 hr 2 min 38 sec) 
Heartbeat CPU  0 instructions:  119000002 cycles:   66746985 heartbeat IPC: 1.11190 cumulative IPC: 1.12338 (Simulation time: 0 hr 2 min 40 sec) 
Heartbeat CPU  0 instructions:  120000000 cycles:   67636448 heartbeat IPC: 1.12427 cumulative IPC: 1.12342 (Simulation time: 0 hr 2 min 41 sec) 
Heartbeat CPU  0 instructions:  121000001 cycles:   68513793 heartbeat IPC: 1.13980 cumulative IPC: 1.12419 (Simulation time: 0 hr 2 min 43 sec) 
Heartbeat CPU  0 instructions:  122000002 cycles:   69398900 heartbeat IPC: 1.12981 cumulative IPC: 1.12445 (Simulation time: 0 hr 2 min 44 sec) 
Heartbeat CPU  0 instructions:  123000000 cycles:   70289215 heartbeat IPC: 1.12320 cumulative IPC: 1.12439 (Simulation time: 0 hr 2 min 46 sec) 
Heartbeat CPU  0 instructions:  124000000 cycles:   71190306 heartbeat IPC: 1.10977 cumulative IPC: 1.12378 (Simulation time: 0 hr 2 min 47 sec) 
Heartbeat CPU  0 instructions:  125000000 cycles:   72086849 heartbeat IPC: 1.11540 cumulative IPC: 1.12344 (Simulation time: 0 hr 2 min 49 sec) 
Heartbeat CPU  0 instructions:  126000000 cycles:   72965942 heartbeat IPC: 1.13754 cumulative IPC: 1.12397 (Simulation time: 0 hr 2 min 50 sec) 
Heartbeat CPU  0 instructions:  127000000 cycles:   73853187 heartbeat IPC: 1.12708 cumulative IPC: 1.12409 (Simulation time: 0 hr 2 min 52 sec) 
Heartbeat CPU  0 instructions:  128000000 cycles:   74742347 heartbeat IPC: 1.12466 cumulative IPC: 1.12411 (Simulation time: 0 hr 2 min 53 sec) 
Heartbeat CPU  0 instructions:  129000002 cycles:   75642050 heartbeat IPC: 1.11148 cumulative IPC: 1.12367 (Simulation time: 0 hr 2 min 54 sec) 
Heartbeat CPU  0 instructions:  130000002 cycles:   76540731 heartbeat IPC: 1.11274 cumulative IPC: 1.12330 (Simulation time: 0 hr 2 min 56 sec) 
Heartbeat CPU  0 instructions:  131000002 cycles:   77425236 heartbeat IPC: 1.13058 cumulative IPC: 1.12353 (Simulation time: 0 hr 2 min 57 sec) 
Heartbeat CPU  0 instructions:  132000000 cycles:   78311258 heartbeat IPC: 1.12864 cumulative IPC: 1.12369 (Simulation time: 0 hr 2 min 59 sec) 
Heartbeat CPU  0 instructions:  133000000 cycles:   79200864 heartbeat IPC: 1.12409 cumulative IPC: 1.12371 (Simulation time: 0 hr 3 min 0 sec) 
Heartbeat CPU  0 instructions:  134000000 cycles:   80090700 heartbeat IPC: 1.12380 cumulative IPC: 1.12371 (Simulation time: 0 hr 3 min 2 sec) 
Heartbeat CPU  0 instructions:  135000002 cycles:   80995822 heartbeat IPC: 1.10483 cumulative IPC: 1.12316 (Simulation time: 0 hr 3 min 3 sec) 
Heartbeat CPU  0 instructions:  136000000 cycles:   81878050 heartbeat IPC: 1.13349 cumulative IPC: 1.12344 (Simulation time: 0 hr 3 min 5 sec) 
Heartbeat CPU  0 instructions:  137000001 cycles:   82755070 heartbeat IPC: 1.14023 cumulative IPC: 1.12389 (Simulation time: 0 hr 3 min 6 sec) 
Heartbeat CPU  0 instructions:  138000003 cycles:   83640671 heartbeat IPC: 1.12918 cumulative IPC: 1.12403 (Simulation time: 0 hr 3 min 8 sec) 
Heartbeat CPU  0 instructions:  139000003 cycles:   84526645 heartbeat IPC: 1.12870 cumulative IPC: 1.12415 (Simulation time: 0 hr 3 min 9 sec) 
Heartbeat CPU  0 instructions:  140000000 cycles:   85430711 heartbeat IPC: 1.10611 cumulative IPC: 1.12369 (Simulation time: 0 hr 3 min 10 sec) 
Heartbeat CPU  0 instructions:  141000003 cycles:   86314455 heartbeat IPC: 1.13155 cumulative IPC: 1.12388 (Simulation time: 0 hr 3 min 12 sec) 
Heartbeat CPU  0 instructions:  142000000 cycles:   87193158 heartbeat IPC: 1.13804 cumulative IPC: 1.12421 (Simulation time: 0 hr 3 min 13 sec) 
Heartbeat CPU  0 instructions:  143000000 cycles:   88072733 heartbeat IPC: 1.13691 cumulative IPC: 1.12451 (Simulation time: 0 hr 3 min 15 sec) 
Heartbeat CPU  0 instructions:  144000000 cycles:   88963521 heartbeat IPC: 1.12260 cumulative IPC: 1.12446 (Simulation time: 0 hr 3 min 16 sec) 
Heartbeat CPU  0 instructions:  145000002 cycles:   89863552 heartbeat IPC: 1.11108 cumulative IPC: 1.12416 (Simulation time: 0 hr 3 min 18 sec) 
Heartbeat CPU  0 instructions:  146000002 cycles:   90756958 heartbeat IPC: 1.11931 cumulative IPC: 1.12406 (Simulation time: 0 hr 3 min 19 sec) 
Heartbeat CPU  0 instructions:  147000002 cycles:   91724268 heartbeat IPC: 1.03379 cumulative IPC: 1.12197 (Simulation time: 0 hr 3 min 21 sec) 
Heartbeat CPU  0 instructions:  148000000 cycles:   93119914 heartbeat IPC: 0.71651 cumulative IPC: 1.10890 (Simulation time: 0 hr 3 min 22 sec) 
Heartbeat CPU  0 instructions:  149000002 cycles:   94512863 heartbeat IPC: 0.71790 cumulative IPC: 1.09671 (Simulation time: 0 hr 3 min 24 sec) 
Heartbeat CPU  0 instructions:  150000002 cycles:   95905736 heartbeat IPC: 0.71794 cumulative IPC: 1.08526 (Simulation time: 0 hr 3 min 26 sec) 
Heartbeat CPU  0 instructions:  151000000 cycles:   97283720 heartbeat IPC: 0.72570 cumulative IPC: 1.07482 (Simulation time: 0 hr 3 min 27 sec) 
Heartbeat CPU  0 instructions:  152000000 cycles:   98671353 heartbeat IPC: 0.72065 cumulative IPC: 1.06475 (Simulation time: 0 hr 3 min 29 sec) 
Heartbeat CPU  0 instructions:  153000003 cycles:  100074569 heartbeat IPC: 0.71265 cumulative IPC: 1.05492 (Simulation time: 0 hr 3 min 30 sec) 
Heartbeat CPU  0 instructions:  154000002 cycles:  101464697 heartbeat IPC: 0.71936 cumulative IPC: 1.04588 (Simulation time: 0 hr 3 min 32 sec) 
Heartbeat CPU  0 instructions:  155000003 cycles:  102863869 heartbeat IPC: 0.71471 cumulative IPC: 1.03715 (Simulation time: 0 hr 3 min 34 sec) 
Heartbeat CPU  0 instructions:  156000000 cycles:  104256207 heartbeat IPC: 0.71821 cumulative IPC: 1.02899 (Simulation time: 0 hr 3 min 35 sec) 
Heartbeat CPU  0 instructions:  157000003 cycles:  105655871 heartbeat IPC: 0.71446 cumulative IPC: 1.02110 (Simulation time: 0 hr 3 min 37 sec) 
Heartbeat CPU  0 instructions:  158000000 cycles:  107046231 heartbeat IPC: 0.71924 cumulative IPC: 1.01376 (Simulation time: 0 hr 3 min 39 sec) 
Heartbeat CPU  0 instructions:  159000003 cycles:  108459133 heartbeat IPC: 0.70777 cumulative IPC: 1.00639 (Simulation time: 0 hr 3 min 40 sec) 
Heartbeat CPU  0 instructions:  160000000 cycles:  109865403 heartbeat IPC: 0.71110 cumulative IPC: 0.99947 (Simulation time: 0 hr 3 min 42 sec) 
Heartbeat CPU  0 instructions:  161000000 cycles:  111256434 heartbeat IPC: 0.71889 cumulative IPC: 0.99312 (Simulation time: 0 hr 3 min 44 sec) 
Heartbeat CPU  0 instructions:  162000000 cycles:  112654899 heartbeat IPC: 0.71507 cumulative IPC: 0.98693 (Simulation time: 0 hr 3 min 45 sec) 
Heartbeat CPU  0 instructions:  163000002 cycles:  114061765 heartbeat IPC: 0.71080 cumulative IPC: 0.98088 (Simulation time: 0 hr 3 min 47 sec) 
Heartbeat CPU  0 instructions:  164000000 cycles:  115461838 heartbeat IPC: 0.71425 cumulative IPC: 0.97519 (Simulation time: 0 hr 3 min 49 sec) 
Heartbeat CPU  0 instructions:  165000001 cycles:  116861732 heartbeat IPC: 0.71434 cumulative IPC: 0.96974 (Simulation time: 0 hr 3 min 50 sec) 
Heartbeat CPU  0 instructions:  166000001 cycles:  118265695 heartbeat IPC: 0.71227 cumulative IPC: 0.96446 (Simulation time: 0 hr 3 min 52 sec) 
Heartbeat CPU  0 instructions:  167000001 cycles:  119647221 heartbeat IPC: 0.72384 cumulative IPC: 0.95970 (Simulation time: 0 hr 3 min 54 sec) 
Heartbeat CPU  0 instructions:  168000000 cycles:  121046921 heartbeat IPC: 0.71444 cumulative IPC: 0.95488 (Simulation time: 0 hr 3 min 55 sec) 
Heartbeat CPU  0 instructions:  169000002 cycles:  122448264 heartbeat IPC: 0.71360 cumulative IPC: 0.95022 (Simulation time: 0 hr 3 min 57 sec) 
Heartbeat CPU  0 instructions:  170000002 cycles:  123826965 heartbeat IPC: 0.72532 cumulative IPC: 0.94603 (Simulation time: 0 hr 3 min 58 sec) 
Heartbeat CPU  0 instructions:  171000002 cycles:  125217138 heartbeat IPC: 0.71933 cumulative IPC: 0.94185 (Simulation time: 0 hr 4 min 0 sec) 
Heartbeat CPU  0 instructions:  172000000 cycles:  126610316 heartbeat IPC: 0.71778 cumulative IPC: 0.93779 (Simulation time: 0 hr 4 min 2 sec) 
Heartbeat CPU  0 instructions:  173000002 cycles:  128002889 heartbeat IPC: 0.71810 cumulative IPC: 0.93387 (Simulation time: 0 hr 4 min 3 sec) 
Heartbeat CPU  0 instructions:  174000003 cycles:  129400353 heartbeat IPC: 0.71558 cumulative IPC: 0.93004 (Simulation time: 0 hr 4 min 5 sec) 
Heartbeat CPU  0 instructions:  175000002 cycles:  130800984 heartbeat IPC: 0.71396 cumulative IPC: 0.92630 (Simulation time: 0 hr 4 min 7 sec) 
Heartbeat CPU  0 instructions:  176000000 cycles:  132204220 heartbeat IPC: 0.71264 cumulative IPC: 0.92266 (Simulation time: 0 hr 4 min 8 sec) 
Heartbeat CPU  0 instructions:  177000003 cycles:  133614920 heartbeat IPC: 0.70887 cumulative IPC: 0.91906 (Simulation time: 0 hr 4 min 10 sec) 
Heartbeat CPU  0 instructions:  178000000 cycles:  135044883 heartbeat IPC: 0.69932 cumulative IPC: 0.91537 (Simulation time: 0 hr 4 min 12 sec) 
Heartbeat CPU  0 instructions:  179000002 cycles:  136445749 heartbeat IPC: 0.71385 cumulative IPC: 0.91211 (Simulation time: 0 hr 4 min 13 sec) 
Heartbeat CPU  0 instructions:  180000000 cycles:  137840721 heartbeat IPC: 0.71686 cumulative IPC: 0.90902 (Simulation time: 0 hr 4 min 15 sec) 
Heartbeat CPU  0 instructions:  181000003 cycles:  139243530 heartbeat IPC: 0.71286 cumulative IPC: 0.90594 (Simulation time: 0 hr 4 min 17 sec) 
Heartbeat CPU  0 instructions:  182000002 cycles:  140638296 heartbeat IPC: 0.71697 cumulative IPC: 0.90304 (Simulation time: 0 hr 4 min 18 sec) 
Heartbeat CPU  0 instructions:  183000000 cycles:  142038410 heartbeat IPC: 0.71423 cumulative IPC: 0.90017 (Simulation time: 0 hr 4 min 20 sec) 
Heartbeat CPU  0 instructions:  184000000 cycles:  143429070 heartbeat IPC: 0.71908 cumulative IPC: 0.89748 (Simulation time: 0 hr 4 min 22 sec) 
Heartbeat CPU  0 instructions:  185000003 cycles:  144822003 heartbeat IPC: 0.71791 cumulative IPC: 0.89485 (Simulation time: 0 hr 4 min 23 sec) 
Heartbeat CPU  0 instructions:  186000001 cycles:  146216644 heartbeat IPC: 0.71703 cumulative IPC: 0.89227 (Simulation time: 0 hr 4 min 25 sec) 
Heartbeat CPU  0 instructions:  187000002 cycles:  147627311 heartbeat IPC: 0.70889 cumulative IPC: 0.88963 (Simulation time: 0 hr 4 min 26 sec) 
Heartbeat CPU  0 instructions:  188000000 cycles:  149021169 heartbeat IPC: 0.71743 cumulative IPC: 0.88721 (Simulation time: 0 hr 4 min 28 sec) 
Heartbeat CPU  0 instructions:  189000001 cycles:  150424522 heartbeat IPC: 0.71258 cumulative IPC: 0.88477 (Simulation time: 0 hr 4 min 30 sec) 
Heartbeat CPU  0 instructions:  190000003 cycles:  151822331 heartbeat IPC: 0.71541 cumulative IPC: 0.88245 (Simulation time: 0 hr 4 min 31 sec) 
Heartbeat CPU  0 instructions:  191000002 cycles:  153219892 heartbeat IPC: 0.71553 cumulative IPC: 0.88020 (Simulation time: 0 hr 4 min 33 sec) 
Heartbeat CPU  0 instructions:  192000000 cycles:  154574156 heartbeat IPC: 0.73841 cumulative IPC: 0.87836 (Simulation time: 0 hr 4 min 35 sec) 
Heartbeat CPU  0 instructions:  193000003 cycles:  155469623 heartbeat IPC: 1.11674 cumulative IPC: 0.88038 (Simulation time: 0 hr 4 min 36 sec) 
Heartbeat CPU  0 instructions:  194000001 cycles:  159154482 heartbeat IPC: 0.27138 cumulative IPC: 0.85986 (Simulation time: 0 hr 4 min 39 sec) 
Heartbeat CPU  0 instructions:  195000000 cycles:  162458472 heartbeat IPC: 0.30266 cumulative IPC: 0.84351 (Simulation time: 0 hr 4 min 42 sec) 
Heartbeat CPU  0 instructions:  196000000 cycles:  163169314 heartbeat IPC: 1.40678 cumulative IPC: 0.84704 (Simulation time: 0 hr 4 min 43 sec) 
Heartbeat CPU  0 instructions:  197000000 cycles:  163876321 heartbeat IPC: 1.41441 cumulative IPC: 0.85056 (Simulation time: 0 hr 4 min 45 sec) 
Heartbeat CPU  0 instructions:  198000003 cycles:  164588550 heartbeat IPC: 1.40405 cumulative IPC: 0.85399 (Simulation time: 0 hr 4 min 46 sec) 
Heartbeat CPU  0 instructions:  199000002 cycles:  165302081 heartbeat IPC: 1.40148 cumulative IPC: 0.85738 (Simulation time: 0 hr 4 min 48 sec) 
Heartbeat CPU  0 instructions:  200000000 cycles:  166017528 heartbeat IPC: 1.39772 cumulative IPC: 0.86071 (Simulation time: 0 hr 4 min 49 sec) 
Finished CPU 0 instructions: 100000000 cycles: 116183819 cumulative IPC: 0.86071 (Simulation time: 0 hr 4 min 49 sec) 

ChampSim completed all CPUs

[ROI Statistics]
Core_0_instructions 100000000
Core_0_cycles 116183819
Core_0_IPC 0.86071

Core_0_branch_prediction_accuracy 99.15344
Core_0_branch_MPKI 0.35029
Core_0_average_ROB_occupancy_at_mispredict 249.76568

Core_0_L1D_total_access 48439991
Core_0_L1D_total_hit 46473803
Core_0_L1D_total_miss 1966188
Core_0_L1D_loads 23114297
Core_0_L1D_load_hit 22440883
Core_0_L1D_load_miss 673414
Core_0_L1D_RFOs 4493317
Core_0_L1D_RFO_hit 4178498
Core_0_L1D_RFO_miss 314819
Core_0_L1D_prefetches 20832377
Core_0_L1D_prefetch_hit 19854422
Core_0_L1D_prefetch_miss 977955
Core_0_L1D_writebacks 0
Core_0_L1D_writeback_hit 0
Core_0_L1D_writeback_miss 0
Core_0_L1D_prefetch_requested 59100116
Core_0_L1D_prefetch_issued 56955328
Core_0_L1D_prefetch_useful 1496732
Core_0_L1D_prefetch_useless 1258038
Core_0_L1D_prefetch_late 283226
Core_0_L1D_average_miss_latency 16243586.66386

Core_0_L1I_total_access 22727487
Core_0_L1I_total_hit 22727267
Core_0_L1I_total_miss 220
Core_0_L1I_loads 22727487
Core_0_L1I_load_hit 22727267
Core_0_L1I_load_miss 220
Core_0_L1I_RFOs 0
Core_0_L1I_RFO_hit 0
Core_0_L1I_RFO_miss 0
Core_0_L1I_prefetches 0
Core_0_L1I_prefetch_hit 0
Core_0_L1I_prefetch_miss 0
Core_0_L1I_writebacks 0
Core_0_L1I_writeback_hit 0
Core_0_L1I_writeback_miss 0
Core_0_L1I_prefetch_requested 0
Core_0_L1I_prefetch_issued 0
Core_0_L1I_prefetch_useful 0
Core_0_L1I_prefetch_useless 0
Core_0_L1I_prefetch_late 0
Core_0_L1I_average_miss_latency 256.53182

Core_0_L2C_total_access 2525071
Core_0_L2C_total_hit 1482439
Core_0_L2C_total_miss 1042632
Core_0_L2C_loads 391507
Core_0_L2C_load_hit 328985
Core_0_L2C_load_miss 62522
Core_0_L2C_RFOs 314660
Core_0_L2C_RFO_hit 124384
Core_0_L2C_RFO_miss 190276
Core_0_L2C_prefetches 1260070
Core_0_L2C_prefetch_hit 470386
Core_0_L2C_prefetch_miss 789684
Core_0_L2C_writebacks 558834
Core_0_L2C_writeback_hit 558684
Core_0_L2C_writeback_miss 150
Core_0_L2C_prefetch_requested 0
Core_0_L2C_prefetch_issued 0
Core_0_L2C_prefetch_useful 152962
Core_0_L2C_prefetch_useless 1128655
Core_0_L2C_prefetch_late 0
Core_0_L2C_average_miss_latency 249.56565

Core_0_LLC_total_access 1446936
Core_0_LLC_total_hit 489812
Core_0_LLC_total_miss 957124
Core_0_LLC_loads 62522
Core_0_LLC_load_hit 16827
Core_0_LLC_load_miss 45695
Core_0_LLC_RFOs 190276
Core_0_LLC_RFO_hit 9885
Core_0_LLC_RFO_miss 180391
Core_0_LLC_prefetches 789684
Core_0_LLC_prefetch_hit 65141
Core_0_LLC_prefetch_miss 724543
Core_0_LLC_writebacks 404454
Core_0_LLC_writeback_hit 397959
Core_0_LLC_writeback_miss 6495
Core_0_LLC_prefetch_requested 0
Core_0_LLC_prefetch_issued 0
Core_0_LLC_prefetch_useful 35277
Core_0_LLC_prefetch_useless 1030665
Core_0_LLC_prefetch_late 0
Core_0_LLC_average_miss_latency 237.68821

Core_0_major_page_fault 0
Core_0_minor_page_fault 15627

CPU 0 L1D next line prefetcher final stats
Channel_0_RQ_row_buffer_hit 317905
Channel_0_RQ_row_buffer_miss 632707
Channel_0_WQ_row_buffer_hit 84033
Channel_0_WQ_row_buffer_miss 296176
Channel_0_WQ_full 0
Channel_0_dbus_congested 354052

avg_congested_cycle 9
