*************************************************
   ChampSim Multicore Out-of-Order Simulator
   Last compiled: Dec 23 2023 13:30:12
*************************************************

trace_0 ./test_trace/437.leslie3d-134B.champsimtrace.xz
CPU 0 L1D next line prefetcher
CPU 0 L2C IP-based stride prefetcher
Initialize DRRIP state
Assign rand_sets[0]: 454  LLC: 2048
rand_sets[0]: 454
Assign rand_sets[1]: 1662  LLC: 2048
rand_sets[1]: 1662
Assign rand_sets[2]: 1921  LLC: 2048
rand_sets[2]: 1921
Assign rand_sets[3]: 1131  LLC: 2048
rand_sets[3]: 1131
Assign rand_sets[4]: 331  LLC: 2048
rand_sets[4]: 331
Assign rand_sets[5]: 1531  LLC: 2048
rand_sets[5]: 1531
Assign rand_sets[6]: 482  LLC: 2048
rand_sets[6]: 482
Assign rand_sets[7]: 1275  LLC: 2048
rand_sets[7]: 1275
Assign rand_sets[8]: 1876  LLC: 2048
rand_sets[8]: 1876
Assign rand_sets[9]: 2038  LLC: 2048
rand_sets[9]: 2038
Assign rand_sets[10]: 701  LLC: 2048
rand_sets[10]: 701
Assign rand_sets[11]: 479  LLC: 2048
rand_sets[11]: 479
Assign rand_sets[12]: 892  LLC: 2048
rand_sets[12]: 892
Assign rand_sets[13]: 1820  LLC: 2048
rand_sets[13]: 1820
Assign rand_sets[14]: 1505  LLC: 2048
rand_sets[14]: 1505
Assign rand_sets[15]: 1159  LLC: 2048
rand_sets[15]: 1159
Assign rand_sets[16]: 513  LLC: 2048
rand_sets[16]: 513
Assign rand_sets[17]: 703  LLC: 2048
rand_sets[17]: 703
Assign rand_sets[18]: 561  LLC: 2048
rand_sets[18]: 561
Assign rand_sets[19]: 990  LLC: 2048
rand_sets[19]: 990
Assign rand_sets[20]: 342  LLC: 2048
rand_sets[20]: 342
Assign rand_sets[21]: 882  LLC: 2048
rand_sets[21]: 882
Assign rand_sets[22]: 15  LLC: 2048
rand_sets[22]: 15
Assign rand_sets[23]: 71  LLC: 2048
rand_sets[23]: 71
Assign rand_sets[24]: 1127  LLC: 2048
rand_sets[24]: 1127
Assign rand_sets[25]: 1382  LLC: 2048
rand_sets[25]: 1382
Assign rand_sets[26]: 647  LLC: 2048
rand_sets[26]: 647
Assign rand_sets[27]: 857  LLC: 2048
rand_sets[27]: 857
Assign rand_sets[28]: 1450  LLC: 2048
rand_sets[28]: 1450
Assign rand_sets[29]: 1160  LLC: 2048
rand_sets[29]: 1160
Assign rand_sets[30]: 1852  LLC: 2048
rand_sets[30]: 1852
Assign rand_sets[31]: 1881  LLC: 2048
rand_sets[31]: 1881
Assign rand_sets[32]: 1770  LLC: 2048
rand_sets[32]: 1770
Assign rand_sets[33]: 1622  LLC: 2048
rand_sets[33]: 1622
Assign rand_sets[34]: 275  LLC: 2048
rand_sets[34]: 275
Assign rand_sets[35]: 635  LLC: 2048
rand_sets[35]: 635
Assign rand_sets[36]: 466  LLC: 2048
rand_sets[36]: 466
Assign rand_sets[37]: 1413  LLC: 2048
rand_sets[37]: 1413
Assign rand_sets[38]: 417  LLC: 2048
rand_sets[38]: 417
Assign rand_sets[39]: 472  LLC: 2048
rand_sets[39]: 472
Assign rand_sets[40]: 1340  LLC: 2048
rand_sets[40]: 1340
Assign rand_sets[41]: 852  LLC: 2048
rand_sets[41]: 852
Assign rand_sets[42]: 1365  LLC: 2048
rand_sets[42]: 1365
Assign rand_sets[43]: 47  LLC: 2048
rand_sets[43]: 47
Assign rand_sets[44]: 823  LLC: 2048
rand_sets[44]: 823
Assign rand_sets[45]: 686  LLC: 2048
rand_sets[45]: 686
Assign rand_sets[46]: 1637  LLC: 2048
rand_sets[46]: 1637
Assign rand_sets[47]: 1115  LLC: 2048
rand_sets[47]: 1115
Assign rand_sets[48]: 986  LLC: 2048
rand_sets[48]: 986
Assign rand_sets[49]: 258  LLC: 2048
rand_sets[49]: 258
Assign rand_sets[50]: 633  LLC: 2048
rand_sets[50]: 633
Assign rand_sets[51]: 920  LLC: 2048
rand_sets[51]: 920
Assign rand_sets[52]: 204  LLC: 2048
rand_sets[52]: 204
Assign rand_sets[53]: 227  LLC: 2048
rand_sets[53]: 227
Assign rand_sets[54]: 1818  LLC: 2048
rand_sets[54]: 1818
Assign rand_sets[55]: 886  LLC: 2048
rand_sets[55]: 886
Assign rand_sets[56]: 1422  LLC: 2048
rand_sets[56]: 1422
Assign rand_sets[57]: 607  LLC: 2048
rand_sets[57]: 607
Assign rand_sets[58]: 217  LLC: 2048
rand_sets[58]: 217
Assign rand_sets[59]: 1945  LLC: 2048
rand_sets[59]: 1945
Assign rand_sets[60]: 143  LLC: 2048
rand_sets[60]: 143
Assign rand_sets[61]: 1311  LLC: 2048
rand_sets[61]: 1311
Assign rand_sets[62]: 319  LLC: 2048
rand_sets[62]: 319
Assign rand_sets[63]: 1846  LLC: 2048
rand_sets[63]: 1846
LLC Next Line Prefetcher
warmup_instructions 100000000
simulation_instructions 100000000
champsim_seed 218

num_cpus 1
cpu_freq 4000
dram_io_freq 2400
page_size 4096
block_size 64
max_read_per_cycle 8
max_fill_per_cycle 1
dram_channels 1
dram_ranks 1
dram_banks 8
dram_rows 65536
dram_columns 128
dram_row_size 8
dram_size 4096
dram_pages 1048576

fetch_width 6
decode_width 6
exec_width 4
lq_width 2
sq_width 2
retire_width 4
scheduler_size 128
branch_mispredict_penalty 20
rob_size 256
lq_size 72
sq_size 56
num_instr_destinations_sparc 4
num_instr_destinations 2
num_instr_sources 4

itlb_set 16
itlb_way 8
itlb_rq_size 16
itlb_wq_size 16
itlb_pq_size 0
itlb_mshr_size 8
itlb_latency 1

dtlb_set 16
dtlb_way 4
dtlb_rq_size 16
dtlb_wq_size 16
dtlb_pq_size 0
dtlb_mshr_size 8
dtlb_latency 1

stlb_set 128
stlb_way 12
stlb_rq_size 32
stlb_wq_size 32
stlb_pq_size 0
stlb_mshr_size 16
stlb_latency 8

l1i_size 32
l1i_set 64
l1i_way 8
l1i_rq_size 64
l1i_wq_size 64
l1i_pq_size 8
l1i_mshr_size 8
l1i_latency 1

l1d_size 32
l1d_set 64
l1d_way 8
l1d_rq_size 64
l1d_wq_size 64
l1d_pq_size 8
l1d_mshr_size 16
l1d_latency 4

l2c_size 512
l2c_set 1024
l2c_way 8
l2c_rq_size 32
l2c_wq_size 32
l2c_pq_size 16
l2c_mshr_size 32
l2c_latency 10

llc_size 2048
llc_set 2048
llc_way 16
llc_rq_size 32
llc_wq_size 32
llc_pq_size 32
llc_mshr_size 64
llc_latency 20

dram_channel_width 8
dram_wq_size 64
dram_rq_size 64
tRP 15
tRCD 15
tCAS 12.5
dram_dbus_turn_around_time 30
dram_write_high_wm 56
dram_write_low_wm 48
min_dram_writes_per_switch 16
dram_mtps 2400
dram_dbus_return_time 13


Heartbeat CPU  0 instructions:    1000002 cycles:     502350 heartbeat IPC: 1.99065 cumulative IPC: 1.99065 (Simulation time: 0 hr 0 min 1 sec) 
Heartbeat CPU  0 instructions:    2000001 cycles:     993935 heartbeat IPC: 2.03423 cumulative IPC: 2.01221 (Simulation time: 0 hr 0 min 3 sec) 
Heartbeat CPU  0 instructions:    3000001 cycles:    1490642 heartbeat IPC: 2.01326 cumulative IPC: 2.01256 (Simulation time: 0 hr 0 min 4 sec) 
Heartbeat CPU  0 instructions:    4000000 cycles:    1992241 heartbeat IPC: 1.99362 cumulative IPC: 2.00779 (Simulation time: 0 hr 0 min 6 sec) 
Heartbeat CPU  0 instructions:    5000000 cycles:    2494068 heartbeat IPC: 1.99272 cumulative IPC: 2.00476 (Simulation time: 0 hr 0 min 7 sec) 
Heartbeat CPU  0 instructions:    6000001 cycles:    2995836 heartbeat IPC: 1.99295 cumulative IPC: 2.00278 (Simulation time: 0 hr 0 min 8 sec) 
Heartbeat CPU  0 instructions:    7000000 cycles:    3482668 heartbeat IPC: 2.05409 cumulative IPC: 2.00995 (Simulation time: 0 hr 0 min 10 sec) 
Heartbeat CPU  0 instructions:    8000000 cycles:    3984391 heartbeat IPC: 1.99313 cumulative IPC: 2.00784 (Simulation time: 0 hr 0 min 11 sec) 
Heartbeat CPU  0 instructions:    9000001 cycles:    4485316 heartbeat IPC: 1.99631 cumulative IPC: 2.00655 (Simulation time: 0 hr 0 min 13 sec) 
Heartbeat CPU  0 instructions:   10000000 cycles:    4987003 heartbeat IPC: 1.99327 cumulative IPC: 2.00521 (Simulation time: 0 hr 0 min 14 sec) 
Heartbeat CPU  0 instructions:   11000001 cycles:    5480887 heartbeat IPC: 2.02477 cumulative IPC: 2.00697 (Simulation time: 0 hr 0 min 15 sec) 
Heartbeat CPU  0 instructions:   12000000 cycles:    5975624 heartbeat IPC: 2.02127 cumulative IPC: 2.00816 (Simulation time: 0 hr 0 min 17 sec) 
Heartbeat CPU  0 instructions:   13000003 cycles:    6477239 heartbeat IPC: 1.99357 cumulative IPC: 2.00703 (Simulation time: 0 hr 0 min 18 sec) 
Heartbeat CPU  0 instructions:   14000001 cycles:    6978612 heartbeat IPC: 1.99452 cumulative IPC: 2.00613 (Simulation time: 0 hr 0 min 20 sec) 
Heartbeat CPU  0 instructions:   15000003 cycles:    7479959 heartbeat IPC: 1.99463 cumulative IPC: 2.00536 (Simulation time: 0 hr 0 min 21 sec) 
Heartbeat CPU  0 instructions:   16000000 cycles:    7967122 heartbeat IPC: 2.05269 cumulative IPC: 2.00825 (Simulation time: 0 hr 0 min 22 sec) 
Heartbeat CPU  0 instructions:   17000001 cycles:    8468825 heartbeat IPC: 1.99321 cumulative IPC: 2.00736 (Simulation time: 0 hr 0 min 24 sec) 
Heartbeat CPU  0 instructions:   18000001 cycles:    8970164 heartbeat IPC: 1.99466 cumulative IPC: 2.00665 (Simulation time: 0 hr 0 min 25 sec) 
Heartbeat CPU  0 instructions:   19000003 cycles:    9471341 heartbeat IPC: 1.99531 cumulative IPC: 2.00605 (Simulation time: 0 hr 0 min 26 sec) 
Heartbeat CPU  0 instructions:   20000000 cycles:    9967894 heartbeat IPC: 2.01388 cumulative IPC: 2.00644 (Simulation time: 0 hr 0 min 28 sec) 
Heartbeat CPU  0 instructions:   21000001 cycles:   10459872 heartbeat IPC: 2.03261 cumulative IPC: 2.00767 (Simulation time: 0 hr 0 min 29 sec) 
Heartbeat CPU  0 instructions:   22000003 cycles:   10961717 heartbeat IPC: 1.99265 cumulative IPC: 2.00699 (Simulation time: 0 hr 0 min 31 sec) 
Heartbeat CPU  0 instructions:   23000001 cycles:   11463841 heartbeat IPC: 1.99154 cumulative IPC: 2.00631 (Simulation time: 0 hr 0 min 32 sec) 
Heartbeat CPU  0 instructions:   24000000 cycles:   11965356 heartbeat IPC: 1.99396 cumulative IPC: 2.00579 (Simulation time: 0 hr 0 min 34 sec) 
Heartbeat CPU  0 instructions:   25000003 cycles:   12451862 heartbeat IPC: 2.05548 cumulative IPC: 2.00773 (Simulation time: 0 hr 0 min 35 sec) 
Heartbeat CPU  0 instructions:   26000001 cycles:   12953676 heartbeat IPC: 1.99277 cumulative IPC: 2.00715 (Simulation time: 0 hr 0 min 36 sec) 
Heartbeat CPU  0 instructions:   27000003 cycles:   13455672 heartbeat IPC: 1.99205 cumulative IPC: 2.00659 (Simulation time: 0 hr 0 min 38 sec) 
Heartbeat CPU  0 instructions:   28000000 cycles:   13957508 heartbeat IPC: 1.99268 cumulative IPC: 2.00609 (Simulation time: 0 hr 0 min 39 sec) 
Heartbeat CPU  0 instructions:   29000002 cycles:   14455119 heartbeat IPC: 2.00961 cumulative IPC: 2.00621 (Simulation time: 0 hr 0 min 40 sec) 
Heartbeat CPU  0 instructions:   30000000 cycles:   14945443 heartbeat IPC: 2.03946 cumulative IPC: 2.00730 (Simulation time: 0 hr 0 min 42 sec) 
Heartbeat CPU  0 instructions:   31000002 cycles:   15446990 heartbeat IPC: 1.99384 cumulative IPC: 2.00686 (Simulation time: 0 hr 0 min 43 sec) 
Heartbeat CPU  0 instructions:   32000000 cycles:   15948426 heartbeat IPC: 1.99427 cumulative IPC: 2.00647 (Simulation time: 0 hr 0 min 45 sec) 
Heartbeat CPU  0 instructions:   33000001 cycles:   16450409 heartbeat IPC: 1.99210 cumulative IPC: 2.00603 (Simulation time: 0 hr 0 min 46 sec) 
Heartbeat CPU  0 instructions:   34000003 cycles:   16939141 heartbeat IPC: 2.04612 cumulative IPC: 2.00719 (Simulation time: 0 hr 0 min 47 sec) 
Heartbeat CPU  0 instructions:   35000000 cycles:   17438410 heartbeat IPC: 2.00292 cumulative IPC: 2.00706 (Simulation time: 0 hr 0 min 49 sec) 
Heartbeat CPU  0 instructions:   36000000 cycles:   17939680 heartbeat IPC: 1.99493 cumulative IPC: 2.00672 (Simulation time: 0 hr 0 min 50 sec) 
Heartbeat CPU  0 instructions:   37000003 cycles:   18441386 heartbeat IPC: 1.99321 cumulative IPC: 2.00636 (Simulation time: 0 hr 0 min 51 sec) 
Heartbeat CPU  0 instructions:   38000003 cycles:   18942213 heartbeat IPC: 1.99670 cumulative IPC: 2.00610 (Simulation time: 0 hr 0 min 53 sec) 
Heartbeat CPU  0 instructions:   39000003 cycles:   19429743 heartbeat IPC: 2.05116 cumulative IPC: 2.00723 (Simulation time: 0 hr 0 min 54 sec) 
Heartbeat CPU  0 instructions:   40000000 cycles:   19930837 heartbeat IPC: 1.99563 cumulative IPC: 2.00694 (Simulation time: 0 hr 0 min 55 sec) 
Heartbeat CPU  0 instructions:   41000001 cycles:   20432631 heartbeat IPC: 1.99285 cumulative IPC: 2.00659 (Simulation time: 0 hr 0 min 57 sec) 
Heartbeat CPU  0 instructions:   42000002 cycles:   20934535 heartbeat IPC: 1.99241 cumulative IPC: 2.00625 (Simulation time: 0 hr 0 min 58 sec) 
Heartbeat CPU  0 instructions:   43000003 cycles:   21426009 heartbeat IPC: 2.03470 cumulative IPC: 2.00691 (Simulation time: 0 hr 1 min 0 sec) 
Heartbeat CPU  0 instructions:   44000000 cycles:   21922882 heartbeat IPC: 2.01258 cumulative IPC: 2.00704 (Simulation time: 0 hr 1 min 1 sec) 
Heartbeat CPU  0 instructions:   45000001 cycles:   22424856 heartbeat IPC: 1.99214 cumulative IPC: 2.00670 (Simulation time: 0 hr 1 min 2 sec) 
Heartbeat CPU  0 instructions:   46000000 cycles:   22926241 heartbeat IPC: 1.99447 cumulative IPC: 2.00643 (Simulation time: 0 hr 1 min 4 sec) 
Heartbeat CPU  0 instructions:   47000002 cycles:   23428075 heartbeat IPC: 1.99269 cumulative IPC: 2.00614 (Simulation time: 0 hr 1 min 5 sec) 
Heartbeat CPU  0 instructions:   48000000 cycles:   23914684 heartbeat IPC: 2.05503 cumulative IPC: 2.00713 (Simulation time: 0 hr 1 min 6 sec) 
Heartbeat CPU  0 instructions:   49000002 cycles:   24416531 heartbeat IPC: 1.99264 cumulative IPC: 2.00684 (Simulation time: 0 hr 1 min 8 sec) 
Heartbeat CPU  0 instructions:   50000003 cycles:   24917883 heartbeat IPC: 1.99461 cumulative IPC: 2.00659 (Simulation time: 0 hr 1 min 9 sec) 
Heartbeat CPU  0 instructions:   51000003 cycles:   25419166 heartbeat IPC: 1.99488 cumulative IPC: 2.00636 (Simulation time: 0 hr 1 min 10 sec) 
Heartbeat CPU  0 instructions:   52000000 cycles:   25912635 heartbeat IPC: 2.02646 cumulative IPC: 2.00674 (Simulation time: 0 hr 1 min 12 sec) 
Heartbeat CPU  0 instructions:   53000001 cycles:   26407703 heartbeat IPC: 2.01993 cumulative IPC: 2.00699 (Simulation time: 0 hr 1 min 13 sec) 
Heartbeat CPU  0 instructions:   54000003 cycles:   26909350 heartbeat IPC: 1.99344 cumulative IPC: 2.00674 (Simulation time: 0 hr 1 min 15 sec) 
Heartbeat CPU  0 instructions:   55000003 cycles:   27410881 heartbeat IPC: 1.99389 cumulative IPC: 2.00650 (Simulation time: 0 hr 1 min 16 sec) 
Heartbeat CPU  0 instructions:   56000000 cycles:   27912094 heartbeat IPC: 1.99515 cumulative IPC: 2.00630 (Simulation time: 0 hr 1 min 17 sec) 
Heartbeat CPU  0 instructions:   57000002 cycles:   28399077 heartbeat IPC: 2.05346 cumulative IPC: 2.00711 (Simulation time: 0 hr 1 min 19 sec) 
Heartbeat CPU  0 instructions:   58000003 cycles:   28900623 heartbeat IPC: 1.99384 cumulative IPC: 2.00688 (Simulation time: 0 hr 1 min 20 sec) 
Heartbeat CPU  0 instructions:   59000001 cycles:   29402241 heartbeat IPC: 1.99354 cumulative IPC: 2.00665 (Simulation time: 0 hr 1 min 21 sec) 
Heartbeat CPU  0 instructions:   60000000 cycles:   29903365 heartbeat IPC: 1.99551 cumulative IPC: 2.00646 (Simulation time: 0 hr 1 min 23 sec) 
Heartbeat CPU  0 instructions:   61000000 cycles:   30399368 heartbeat IPC: 2.01612 cumulative IPC: 2.00662 (Simulation time: 0 hr 1 min 24 sec) 
Heartbeat CPU  0 instructions:   62000001 cycles:   30891657 heartbeat IPC: 2.03133 cumulative IPC: 2.00701 (Simulation time: 0 hr 1 min 26 sec) 
Heartbeat CPU  0 instructions:   63000001 cycles:   31393440 heartbeat IPC: 1.99289 cumulative IPC: 2.00679 (Simulation time: 0 hr 1 min 27 sec) 
Heartbeat CPU  0 instructions:   64000000 cycles:   31895483 heartbeat IPC: 1.99186 cumulative IPC: 2.00655 (Simulation time: 0 hr 1 min 28 sec) 
Heartbeat CPU  0 instructions:   65000000 cycles:   32397170 heartbeat IPC: 1.99327 cumulative IPC: 2.00635 (Simulation time: 0 hr 1 min 30 sec) 
Heartbeat CPU  0 instructions:   66000003 cycles:   32883381 heartbeat IPC: 2.05673 cumulative IPC: 2.00709 (Simulation time: 0 hr 1 min 31 sec) 
Heartbeat CPU  0 instructions:   67000000 cycles:   33385190 heartbeat IPC: 1.99278 cumulative IPC: 2.00688 (Simulation time: 0 hr 1 min 32 sec) 
Heartbeat CPU  0 instructions:   68000000 cycles:   33886953 heartbeat IPC: 1.99297 cumulative IPC: 2.00667 (Simulation time: 0 hr 1 min 34 sec) 
Heartbeat CPU  0 instructions:   69000001 cycles:   34388983 heartbeat IPC: 1.99191 cumulative IPC: 2.00646 (Simulation time: 0 hr 1 min 35 sec) 
Heartbeat CPU  0 instructions:   70000000 cycles:   34886300 heartbeat IPC: 2.01079 cumulative IPC: 2.00652 (Simulation time: 0 hr 1 min 36 sec) 
Heartbeat CPU  0 instructions:   71000001 cycles:   35376796 heartbeat IPC: 2.03875 cumulative IPC: 2.00697 (Simulation time: 0 hr 1 min 38 sec) 
Heartbeat CPU  0 instructions:   72000000 cycles:   35878691 heartbeat IPC: 1.99245 cumulative IPC: 2.00676 (Simulation time: 0 hr 1 min 39 sec) 
Heartbeat CPU  0 instructions:   73000002 cycles:   36379790 heartbeat IPC: 1.99562 cumulative IPC: 2.00661 (Simulation time: 0 hr 1 min 41 sec) 
Heartbeat CPU  0 instructions:   74000003 cycles:   36881568 heartbeat IPC: 1.99292 cumulative IPC: 2.00642 (Simulation time: 0 hr 1 min 42 sec) 
Heartbeat CPU  0 instructions:   75000001 cycles:   37370296 heartbeat IPC: 2.04612 cumulative IPC: 2.00694 (Simulation time: 0 hr 1 min 43 sec) 
Heartbeat CPU  0 instructions:   76000000 cycles:   37869664 heartbeat IPC: 2.00253 cumulative IPC: 2.00688 (Simulation time: 0 hr 1 min 45 sec) 
Heartbeat CPU  0 instructions:   77000000 cycles:   38371401 heartbeat IPC: 1.99308 cumulative IPC: 2.00670 (Simulation time: 0 hr 1 min 46 sec) 
Heartbeat CPU  0 instructions:   78000003 cycles:   38872900 heartbeat IPC: 1.99403 cumulative IPC: 2.00654 (Simulation time: 0 hr 1 min 48 sec) 
Heartbeat CPU  0 instructions:   79000001 cycles:   39373262 heartbeat IPC: 1.99855 cumulative IPC: 2.00644 (Simulation time: 0 hr 1 min 50 sec) 
Heartbeat CPU  0 instructions:   80000000 cycles:   39861787 heartbeat IPC: 2.04698 cumulative IPC: 2.00693 (Simulation time: 0 hr 1 min 52 sec) 
Heartbeat CPU  0 instructions:   81000003 cycles:   40362770 heartbeat IPC: 1.99608 cumulative IPC: 2.00680 (Simulation time: 0 hr 1 min 53 sec) 
Heartbeat CPU  0 instructions:   82000003 cycles:   40864315 heartbeat IPC: 1.99384 cumulative IPC: 2.00664 (Simulation time: 0 hr 1 min 55 sec) 
Heartbeat CPU  0 instructions:   83000001 cycles:   41365996 heartbeat IPC: 1.99329 cumulative IPC: 2.00648 (Simulation time: 0 hr 1 min 56 sec) 
Heartbeat CPU  0 instructions:   84000000 cycles:   41857232 heartbeat IPC: 2.03568 cumulative IPC: 2.00682 (Simulation time: 0 hr 1 min 58 sec) 
Heartbeat CPU  0 instructions:   85000002 cycles:   42354703 heartbeat IPC: 2.01017 cumulative IPC: 2.00686 (Simulation time: 0 hr 1 min 59 sec) 
Heartbeat CPU  0 instructions:   86000002 cycles:   42856595 heartbeat IPC: 1.99246 cumulative IPC: 2.00669 (Simulation time: 0 hr 2 min 1 sec) 
Heartbeat CPU  0 instructions:   87000002 cycles:   43358132 heartbeat IPC: 1.99387 cumulative IPC: 2.00654 (Simulation time: 0 hr 2 min 2 sec) 
Heartbeat CPU  0 instructions:   88000000 cycles:   43860000 heartbeat IPC: 1.99255 cumulative IPC: 2.00638 (Simulation time: 0 hr 2 min 3 sec) 
Heartbeat CPU  0 instructions:   89000003 cycles:   44346701 heartbeat IPC: 2.05466 cumulative IPC: 2.00691 (Simulation time: 0 hr 2 min 5 sec) 
Heartbeat CPU  0 instructions:   90000002 cycles:   44848760 heartbeat IPC: 1.99180 cumulative IPC: 2.00674 (Simulation time: 0 hr 2 min 6 sec) 
Heartbeat CPU  0 instructions:   91000000 cycles:   45350145 heartbeat IPC: 1.99447 cumulative IPC: 2.00661 (Simulation time: 0 hr 2 min 8 sec) 
Heartbeat CPU  0 instructions:   92000000 cycles:   45851789 heartbeat IPC: 1.99345 cumulative IPC: 2.00646 (Simulation time: 0 hr 2 min 9 sec) 
Heartbeat CPU  0 instructions:   93000002 cycles:   46344588 heartbeat IPC: 2.02923 cumulative IPC: 2.00671 (Simulation time: 0 hr 2 min 10 sec) 
Heartbeat CPU  0 instructions:   94000003 cycles:   46840324 heartbeat IPC: 2.01720 cumulative IPC: 2.00682 (Simulation time: 0 hr 2 min 12 sec) 
Heartbeat CPU  0 instructions:   95000003 cycles:   47341892 heartbeat IPC: 1.99375 cumulative IPC: 2.00668 (Simulation time: 0 hr 2 min 13 sec) 
Heartbeat CPU  0 instructions:   96000000 cycles:   47843528 heartbeat IPC: 1.99347 cumulative IPC: 2.00654 (Simulation time: 0 hr 2 min 15 sec) 
Heartbeat CPU  0 instructions:   97000000 cycles:   48344901 heartbeat IPC: 1.99452 cumulative IPC: 2.00642 (Simulation time: 0 hr 2 min 16 sec) 
Heartbeat CPU  0 instructions:   98000000 cycles:   48831607 heartbeat IPC: 2.05463 cumulative IPC: 2.00690 (Simulation time: 0 hr 2 min 18 sec) 
Heartbeat CPU  0 instructions:   99000002 cycles:   49333244 heartbeat IPC: 1.99348 cumulative IPC: 2.00676 (Simulation time: 0 hr 2 min 19 sec) 
Heartbeat CPU  0 instructions:  100000000 cycles:   49834803 heartbeat IPC: 1.99378 cumulative IPC: 2.00663 (Simulation time: 0 hr 2 min 20 sec) 

Warmup complete CPU  0 instructions:  100000003 cycles:   49834804 (Simulation time: 0 hr 2 min 20 sec) 

Heartbeat CPU  0 instructions:  101000001 cycles:   50655695 heartbeat IPC: 1.21819 cumulative IPC: 1.21819 (Simulation time: 0 hr 2 min 22 sec) 
Heartbeat CPU  0 instructions:  102000002 cycles:   51485099 heartbeat IPC: 1.20569 cumulative IPC: 1.21190 (Simulation time: 0 hr 2 min 24 sec) 
Heartbeat CPU  0 instructions:  103000001 cycles:   52323509 heartbeat IPC: 1.19273 cumulative IPC: 1.20545 (Simulation time: 0 hr 2 min 25 sec) 
Heartbeat CPU  0 instructions:  104000000 cycles:   53157661 heartbeat IPC: 1.19882 cumulative IPC: 1.20378 (Simulation time: 0 hr 2 min 27 sec) 
Heartbeat CPU  0 instructions:  105000003 cycles:   53972434 heartbeat IPC: 1.22734 cumulative IPC: 1.20842 (Simulation time: 0 hr 2 min 28 sec) 
Heartbeat CPU  0 instructions:  106000001 cycles:   54790425 heartbeat IPC: 1.22250 cumulative IPC: 1.21075 (Simulation time: 0 hr 2 min 30 sec) 
Heartbeat CPU  0 instructions:  107000002 cycles:   55626439 heartbeat IPC: 1.19615 cumulative IPC: 1.20864 (Simulation time: 0 hr 2 min 31 sec) 
Heartbeat CPU  0 instructions:  108000000 cycles:   56456964 heartbeat IPC: 1.20406 cumulative IPC: 1.20806 (Simulation time: 0 hr 2 min 33 sec) 
Heartbeat CPU  0 instructions:  109000003 cycles:   57289201 heartbeat IPC: 1.20158 cumulative IPC: 1.20734 (Simulation time: 0 hr 2 min 34 sec) 
Heartbeat CPU  0 instructions:  110000001 cycles:   58110874 heartbeat IPC: 1.21703 cumulative IPC: 1.20830 (Simulation time: 0 hr 2 min 36 sec) 
Heartbeat CPU  0 instructions:  111000003 cycles:   58927544 heartbeat IPC: 1.22449 cumulative IPC: 1.20976 (Simulation time: 0 hr 2 min 37 sec) 
Heartbeat CPU  0 instructions:  112000000 cycles:   59762321 heartbeat IPC: 1.19792 cumulative IPC: 1.20876 (Simulation time: 0 hr 2 min 39 sec) 
Heartbeat CPU  0 instructions:  113000002 cycles:   60592751 heartbeat IPC: 1.20420 cumulative IPC: 1.20841 (Simulation time: 0 hr 2 min 40 sec) 
Heartbeat CPU  0 instructions:  114000002 cycles:   61422949 heartbeat IPC: 1.20453 cumulative IPC: 1.20813 (Simulation time: 0 hr 2 min 42 sec) 
Heartbeat CPU  0 instructions:  115000000 cycles:   62249181 heartbeat IPC: 1.21031 cumulative IPC: 1.20828 (Simulation time: 0 hr 2 min 43 sec) 
Heartbeat CPU  0 instructions:  116000000 cycles:   63075405 heartbeat IPC: 1.21033 cumulative IPC: 1.20840 (Simulation time: 0 hr 2 min 45 sec) 
Heartbeat CPU  0 instructions:  117000002 cycles:   63900645 heartbeat IPC: 1.21177 cumulative IPC: 1.20860 (Simulation time: 0 hr 2 min 46 sec) 
Heartbeat CPU  0 instructions:  118000001 cycles:   64728159 heartbeat IPC: 1.20844 cumulative IPC: 1.20859 (Simulation time: 0 hr 2 min 48 sec) 
Heartbeat CPU  0 instructions:  119000002 cycles:   65559010 heartbeat IPC: 1.20359 cumulative IPC: 1.20833 (Simulation time: 0 hr 2 min 49 sec) 
Heartbeat CPU  0 instructions:  120000000 cycles:   66390948 heartbeat IPC: 1.20201 cumulative IPC: 1.20801 (Simulation time: 0 hr 2 min 51 sec) 
Heartbeat CPU  0 instructions:  121000001 cycles:   67214649 heartbeat IPC: 1.21403 cumulative IPC: 1.20830 (Simulation time: 0 hr 2 min 53 sec) 
Heartbeat CPU  0 instructions:  122000002 cycles:   68037317 heartbeat IPC: 1.21556 cumulative IPC: 1.20862 (Simulation time: 0 hr 2 min 54 sec) 
Heartbeat CPU  0 instructions:  123000000 cycles:   68863431 heartbeat IPC: 1.21048 cumulative IPC: 1.20871 (Simulation time: 0 hr 2 min 56 sec) 
Heartbeat CPU  0 instructions:  124000000 cycles:   69696953 heartbeat IPC: 1.19973 cumulative IPC: 1.20833 (Simulation time: 0 hr 2 min 57 sec) 
Heartbeat CPU  0 instructions:  125000000 cycles:   70539123 heartbeat IPC: 1.18741 cumulative IPC: 1.20748 (Simulation time: 0 hr 2 min 59 sec) 
Heartbeat CPU  0 instructions:  126000000 cycles:   71353964 heartbeat IPC: 1.22723 cumulative IPC: 1.20823 (Simulation time: 0 hr 3 min 0 sec) 
Heartbeat CPU  0 instructions:  127000000 cycles:   72174954 heartbeat IPC: 1.21804 cumulative IPC: 1.20859 (Simulation time: 0 hr 3 min 2 sec) 
Heartbeat CPU  0 instructions:  128000000 cycles:   72998819 heartbeat IPC: 1.21379 cumulative IPC: 1.20877 (Simulation time: 0 hr 3 min 3 sec) 
Heartbeat CPU  0 instructions:  129000002 cycles:   73829999 heartbeat IPC: 1.20311 cumulative IPC: 1.20858 (Simulation time: 0 hr 3 min 5 sec) 
Heartbeat CPU  0 instructions:  130000002 cycles:   74676798 heartbeat IPC: 1.18092 cumulative IPC: 1.20763 (Simulation time: 0 hr 3 min 6 sec) 
Heartbeat CPU  0 instructions:  131000002 cycles:   75493255 heartbeat IPC: 1.22480 cumulative IPC: 1.20818 (Simulation time: 0 hr 3 min 8 sec) 
Heartbeat CPU  0 instructions:  132000000 cycles:   76311871 heartbeat IPC: 1.22157 cumulative IPC: 1.20859 (Simulation time: 0 hr 3 min 10 sec) 
Heartbeat CPU  0 instructions:  133000000 cycles:   77134259 heartbeat IPC: 1.21597 cumulative IPC: 1.20882 (Simulation time: 0 hr 3 min 11 sec) 
Heartbeat CPU  0 instructions:  134000000 cycles:   77970086 heartbeat IPC: 1.19642 cumulative IPC: 1.20845 (Simulation time: 0 hr 3 min 13 sec) 
Heartbeat CPU  0 instructions:  135000002 cycles:   78810557 heartbeat IPC: 1.18981 cumulative IPC: 1.20791 (Simulation time: 0 hr 3 min 14 sec) 
Heartbeat CPU  0 instructions:  136000000 cycles:   79627090 heartbeat IPC: 1.22469 cumulative IPC: 1.20837 (Simulation time: 0 hr 3 min 16 sec) 
Heartbeat CPU  0 instructions:  137000001 cycles:   80445052 heartbeat IPC: 1.22255 cumulative IPC: 1.20875 (Simulation time: 0 hr 3 min 17 sec) 
Heartbeat CPU  0 instructions:  138000003 cycles:   81267135 heartbeat IPC: 1.21642 cumulative IPC: 1.20895 (Simulation time: 0 hr 3 min 19 sec) 
Heartbeat CPU  0 instructions:  139000003 cycles:   82103686 heartbeat IPC: 1.19538 cumulative IPC: 1.20859 (Simulation time: 0 hr 3 min 20 sec) 
Heartbeat CPU  0 instructions:  140000000 cycles:   82941272 heartbeat IPC: 1.19390 cumulative IPC: 1.20822 (Simulation time: 0 hr 3 min 22 sec) 
Heartbeat CPU  0 instructions:  141000003 cycles:   83761504 heartbeat IPC: 1.21917 cumulative IPC: 1.20849 (Simulation time: 0 hr 3 min 24 sec) 
Heartbeat CPU  0 instructions:  142000000 cycles:   84576708 heartbeat IPC: 1.22668 cumulative IPC: 1.20891 (Simulation time: 0 hr 3 min 25 sec) 
Heartbeat CPU  0 instructions:  143000000 cycles:   85401312 heartbeat IPC: 1.21270 cumulative IPC: 1.20900 (Simulation time: 0 hr 3 min 27 sec) 
Heartbeat CPU  0 instructions:  144000000 cycles:   86232032 heartbeat IPC: 1.20378 cumulative IPC: 1.20888 (Simulation time: 0 hr 3 min 28 sec) 
Heartbeat CPU  0 instructions:  145000002 cycles:   87067888 heartbeat IPC: 1.19638 cumulative IPC: 1.20860 (Simulation time: 0 hr 3 min 30 sec) 
Heartbeat CPU  0 instructions:  146000002 cycles:   87896024 heartbeat IPC: 1.20753 cumulative IPC: 1.20858 (Simulation time: 0 hr 3 min 31 sec) 
Heartbeat CPU  0 instructions:  147000002 cycles:   88766845 heartbeat IPC: 1.14834 cumulative IPC: 1.20723 (Simulation time: 0 hr 3 min 33 sec) 
Heartbeat CPU  0 instructions:  148000000 cycles:   89879023 heartbeat IPC: 0.89913 cumulative IPC: 1.19867 (Simulation time: 0 hr 3 min 34 sec) 
Heartbeat CPU  0 instructions:  149000002 cycles:   90998551 heartbeat IPC: 0.89324 cumulative IPC: 1.19037 (Simulation time: 0 hr 3 min 36 sec) 
Heartbeat CPU  0 instructions:  150000002 cycles:   92117645 heartbeat IPC: 0.89358 cumulative IPC: 1.18251 (Simulation time: 0 hr 3 min 38 sec) 
Heartbeat CPU  0 instructions:  151000000 cycles:   93226212 heartbeat IPC: 0.90206 cumulative IPC: 1.17535 (Simulation time: 0 hr 3 min 39 sec) 
Heartbeat CPU  0 instructions:  152000000 cycles:   94346920 heartbeat IPC: 0.89229 cumulative IPC: 1.16822 (Simulation time: 0 hr 3 min 41 sec) 
Heartbeat CPU  0 instructions:  153000003 cycles:   95467853 heartbeat IPC: 0.89212 cumulative IPC: 1.16144 (Simulation time: 0 hr 3 min 42 sec) 
Heartbeat CPU  0 instructions:  154000002 cycles:   96583741 heartbeat IPC: 0.89615 cumulative IPC: 1.15511 (Simulation time: 0 hr 3 min 44 sec) 
Heartbeat CPU  0 instructions:  155000003 cycles:   97703017 heartbeat IPC: 0.89344 cumulative IPC: 1.14899 (Simulation time: 0 hr 3 min 46 sec) 
Heartbeat CPU  0 instructions:  156000000 cycles:   98820748 heartbeat IPC: 0.89467 cumulative IPC: 1.14319 (Simulation time: 0 hr 3 min 47 sec) 
Heartbeat CPU  0 instructions:  157000003 cycles:   99936373 heartbeat IPC: 0.89636 cumulative IPC: 1.13769 (Simulation time: 0 hr 3 min 49 sec) 
Heartbeat CPU  0 instructions:  158000000 cycles:  101056221 heartbeat IPC: 0.89298 cumulative IPC: 1.13234 (Simulation time: 0 hr 3 min 51 sec) 
Heartbeat CPU  0 instructions:  159000003 cycles:  102184348 heartbeat IPC: 0.88643 cumulative IPC: 1.12704 (Simulation time: 0 hr 3 min 52 sec) 
Heartbeat CPU  0 instructions:  160000000 cycles:  103310540 heartbeat IPC: 0.88795 cumulative IPC: 1.12200 (Simulation time: 0 hr 3 min 54 sec) 
Heartbeat CPU  0 instructions:  161000000 cycles:  104426246 heartbeat IPC: 0.89629 cumulative IPC: 1.11739 (Simulation time: 0 hr 3 min 55 sec) 
Heartbeat CPU  0 instructions:  162000000 cycles:  105544064 heartbeat IPC: 0.89460 cumulative IPC: 1.11292 (Simulation time: 0 hr 3 min 57 sec) 
Heartbeat CPU  0 instructions:  163000002 cycles:  106671535 heartbeat IPC: 0.88694 cumulative IPC: 1.10844 (Simulation time: 0 hr 3 min 59 sec) 
Heartbeat CPU  0 instructions:  164000000 cycles:  107794292 heartbeat IPC: 0.89066 cumulative IPC: 1.10422 (Simulation time: 0 hr 4 min 0 sec) 
Heartbeat CPU  0 instructions:  165000003 cycles:  108918530 heartbeat IPC: 0.88949 cumulative IPC: 1.10013 (Simulation time: 0 hr 4 min 2 sec) 
Heartbeat CPU  0 instructions:  166000001 cycles:  110038513 heartbeat IPC: 0.89287 cumulative IPC: 1.09628 (Simulation time: 0 hr 4 min 4 sec) 
Heartbeat CPU  0 instructions:  167000001 cycles:  111154214 heartbeat IPC: 0.89630 cumulative IPC: 1.09264 (Simulation time: 0 hr 4 min 5 sec) 
Heartbeat CPU  0 instructions:  168000000 cycles:  112278681 heartbeat IPC: 0.88931 cumulative IPC: 1.08898 (Simulation time: 0 hr 4 min 7 sec) 
Heartbeat CPU  0 instructions:  169000002 cycles:  113394582 heartbeat IPC: 0.89614 cumulative IPC: 1.08559 (Simulation time: 0 hr 4 min 8 sec) 
Heartbeat CPU  0 instructions:  170000002 cycles:  114505468 heartbeat IPC: 0.90018 cumulative IPC: 1.08241 (Simulation time: 0 hr 4 min 10 sec) 
Heartbeat CPU  0 instructions:  171000002 cycles:  115623994 heartbeat IPC: 0.89403 cumulative IPC: 1.07920 (Simulation time: 0 hr 4 min 12 sec) 
Heartbeat CPU  0 instructions:  172000000 cycles:  116741136 heartbeat IPC: 0.89514 cumulative IPC: 1.07613 (Simulation time: 0 hr 4 min 13 sec) 
Heartbeat CPU  0 instructions:  173000002 cycles:  117859414 heartbeat IPC: 0.89423 cumulative IPC: 1.07314 (Simulation time: 0 hr 4 min 15 sec) 
Heartbeat CPU  0 instructions:  174000003 cycles:  118984499 heartbeat IPC: 0.88882 cumulative IPC: 1.07014 (Simulation time: 0 hr 4 min 17 sec) 
Heartbeat CPU  0 instructions:  175000002 cycles:  120108607 heartbeat IPC: 0.88959 cumulative IPC: 1.06725 (Simulation time: 0 hr 4 min 18 sec) 
Heartbeat CPU  0 instructions:  176000000 cycles:  121227730 heartbeat IPC: 0.89356 cumulative IPC: 1.06453 (Simulation time: 0 hr 4 min 20 sec) 
Heartbeat CPU  0 instructions:  177000003 cycles:  122343510 heartbeat IPC: 0.89624 cumulative IPC: 1.06194 (Simulation time: 0 hr 4 min 21 sec) 
Heartbeat CPU  0 instructions:  178000000 cycles:  123461096 heartbeat IPC: 0.89478 cumulative IPC: 1.05940 (Simulation time: 0 hr 4 min 23 sec) 
Heartbeat CPU  0 instructions:  179000002 cycles:  124583890 heartbeat IPC: 0.89064 cumulative IPC: 1.05687 (Simulation time: 0 hr 4 min 25 sec) 
Heartbeat CPU  0 instructions:  180000000 cycles:  125710333 heartbeat IPC: 0.88775 cumulative IPC: 1.05436 (Simulation time: 0 hr 4 min 26 sec) 
Heartbeat CPU  0 instructions:  181000003 cycles:  126831926 heartbeat IPC: 0.89159 cumulative IPC: 1.05199 (Simulation time: 0 hr 4 min 28 sec) 
Heartbeat CPU  0 instructions:  182000002 cycles:  127949757 heartbeat IPC: 0.89459 cumulative IPC: 1.04973 (Simulation time: 0 hr 4 min 30 sec) 
Heartbeat CPU  0 instructions:  183000000 cycles:  129073244 heartbeat IPC: 0.89008 cumulative IPC: 1.04747 (Simulation time: 0 hr 4 min 31 sec) 
Heartbeat CPU  0 instructions:  184000000 cycles:  130189318 heartbeat IPC: 0.89600 cumulative IPC: 1.04537 (Simulation time: 0 hr 4 min 33 sec) 
Heartbeat CPU  0 instructions:  185000003 cycles:  131300116 heartbeat IPC: 0.90026 cumulative IPC: 1.04339 (Simulation time: 0 hr 4 min 34 sec) 
Heartbeat CPU  0 instructions:  186000001 cycles:  132415805 heartbeat IPC: 0.89631 cumulative IPC: 1.04140 (Simulation time: 0 hr 4 min 36 sec) 
Heartbeat CPU  0 instructions:  187000002 cycles:  133541621 heartbeat IPC: 0.88825 cumulative IPC: 1.03934 (Simulation time: 0 hr 4 min 38 sec) 
Heartbeat CPU  0 instructions:  188000000 cycles:  134658148 heartbeat IPC: 0.89563 cumulative IPC: 1.03745 (Simulation time: 0 hr 4 min 39 sec) 
Heartbeat CPU  0 instructions:  189000001 cycles:  135785151 heartbeat IPC: 0.88731 cumulative IPC: 1.03548 (Simulation time: 0 hr 4 min 41 sec) 
Heartbeat CPU  0 instructions:  190000003 cycles:  136907470 heartbeat IPC: 0.89101 cumulative IPC: 1.03362 (Simulation time: 0 hr 4 min 42 sec) 
Heartbeat CPU  0 instructions:  191000002 cycles:  138030387 heartbeat IPC: 0.89054 cumulative IPC: 1.03180 (Simulation time: 0 hr 4 min 44 sec) 
Heartbeat CPU  0 instructions:  192000000 cycles:  139129747 heartbeat IPC: 0.90962 cumulative IPC: 1.03029 (Simulation time: 0 hr 4 min 46 sec) 
Heartbeat CPU  0 instructions:  193000003 cycles:  140032144 heartbeat IPC: 1.10816 cumulative IPC: 1.03107 (Simulation time: 0 hr 4 min 47 sec) 
Heartbeat CPU  0 instructions:  194000001 cycles:  144116691 heartbeat IPC: 0.24482 cumulative IPC: 0.99701 (Simulation time: 0 hr 4 min 50 sec) 
Heartbeat CPU  0 instructions:  195000000 cycles:  147501873 heartbeat IPC: 0.29540 cumulative IPC: 0.97269 (Simulation time: 0 hr 4 min 53 sec) 
Heartbeat CPU  0 instructions:  196000000 cycles:  148208955 heartbeat IPC: 1.41426 cumulative IPC: 0.97587 (Simulation time: 0 hr 4 min 55 sec) 
Heartbeat CPU  0 instructions:  197000000 cycles:  148915807 heartbeat IPC: 1.41472 cumulative IPC: 0.97900 (Simulation time: 0 hr 4 min 56 sec) 
Heartbeat CPU  0 instructions:  198000003 cycles:  149624407 heartbeat IPC: 1.41124 cumulative IPC: 0.98207 (Simulation time: 0 hr 4 min 58 sec) 
Heartbeat CPU  0 instructions:  199000002 cycles:  150341049 heartbeat IPC: 1.39540 cumulative IPC: 0.98501 (Simulation time: 0 hr 5 min 0 sec) 
Heartbeat CPU  0 instructions:  200000000 cycles:  151047062 heartbeat IPC: 1.41640 cumulative IPC: 0.98802 (Simulation time: 0 hr 5 min 1 sec) 
Finished CPU 0 instructions: 100000000 cycles: 101212287 cumulative IPC: 0.98802 (Simulation time: 0 hr 5 min 1 sec) 

ChampSim completed all CPUs

[ROI Statistics]
Core_0_instructions 100000000
Core_0_cycles 101212287
Core_0_IPC 0.98802

Core_0_branch_prediction_accuracy 99.15344
Core_0_branch_MPKI 0.35029
Core_0_average_ROB_occupancy_at_mispredict 249.72135

Core_0_L1D_total_access 49884800
Core_0_L1D_total_hit 47908017
Core_0_L1D_total_miss 1976783
Core_0_L1D_loads 23413203
Core_0_L1D_load_hit 22891047
Core_0_L1D_load_miss 522156
Core_0_L1D_RFOs 4490316
Core_0_L1D_RFO_hit 4175406
Core_0_L1D_RFO_miss 314910
Core_0_L1D_prefetches 21981281
Core_0_L1D_prefetch_hit 20841564
Core_0_L1D_prefetch_miss 1139717
Core_0_L1D_writebacks 0
Core_0_L1D_writeback_hit 0
Core_0_L1D_writeback_miss 0
Core_0_L1D_prefetch_requested 59246436
Core_0_L1D_prefetch_issued 57174683
Core_0_L1D_prefetch_useful 1653479
Core_0_L1D_prefetch_useless 1230099
Core_0_L1D_prefetch_late 127544
Core_0_L1D_average_miss_latency 7098923.35533

Core_0_L1I_total_access 22631348
Core_0_L1I_total_hit 22631128
Core_0_L1I_total_miss 220
Core_0_L1I_loads 22631348
Core_0_L1I_load_hit 22631128
Core_0_L1I_load_miss 220
Core_0_L1I_RFOs 0
Core_0_L1I_RFO_hit 0
Core_0_L1I_RFO_miss 0
Core_0_L1I_prefetches 0
Core_0_L1I_prefetch_hit 0
Core_0_L1I_prefetch_miss 0
Core_0_L1I_writebacks 0
Core_0_L1I_writeback_hit 0
Core_0_L1I_writeback_miss 0
Core_0_L1I_prefetch_requested 0
Core_0_L1I_prefetch_issued 0
Core_0_L1I_prefetch_useful 0
Core_0_L1I_prefetch_useless 0
Core_0_L1I_prefetch_late 0
Core_0_L1I_average_miss_latency 213.90000

Core_0_L2C_total_access 4346490
Core_0_L2C_total_hit 3248220
Core_0_L2C_total_miss 1098270
Core_0_L2C_loads 396523
Core_0_L2C_load_hit 332302
Core_0_L2C_load_miss 64221
Core_0_L2C_RFOs 314750
Core_0_L2C_RFO_hit 124157
Core_0_L2C_RFO_miss 190593
Core_0_L2C_prefetches 3076275
Core_0_L2C_prefetch_hit 2232971
Core_0_L2C_prefetch_miss 843304
Core_0_L2C_writebacks 558942
Core_0_L2C_writeback_hit 558790
Core_0_L2C_writeback_miss 152
Core_0_L2C_prefetch_requested 4617542
Core_0_L2C_prefetch_issued 4614788
Core_0_L2C_prefetch_useful 161085
Core_0_L2C_prefetch_useless 1259449
Core_0_L2C_prefetch_late 1413
Core_0_L2C_average_miss_latency 178.60741

Core_0_LLC_total_access 1950639
Core_0_LLC_total_hit 930506
Core_0_LLC_total_miss 1020133
Core_0_LLC_loads 63284
Core_0_LLC_load_hit 19062
Core_0_LLC_load_miss 44222
Core_0_LLC_RFOs 190117
Core_0_LLC_RFO_hit 16449
Core_0_LLC_RFO_miss 173668
Core_0_LLC_prefetches 1288751
Core_0_LLC_prefetch_hit 497294
Core_0_LLC_prefetch_miss 791457
Core_0_LLC_writebacks 408487
Core_0_LLC_writeback_hit 397701
Core_0_LLC_writeback_miss 10786
Core_0_LLC_prefetch_requested 1367264
Core_0_LLC_prefetch_issued 1344942
Core_0_LLC_prefetch_useful 44776
Core_0_LLC_prefetch_useless 1084443
Core_0_LLC_prefetch_late 353
Core_0_LLC_average_miss_latency 263.61483

Core_0_major_page_fault 0
Core_0_minor_page_fault 15627

CPU 0 L1D next line prefetcher final stats
CPU 0 L2C PC-based stride prefetcher final stats
LLC Next Line Prefetcher Final Stats: none
Channel_0_RQ_row_buffer_hit 330682
Channel_0_RQ_row_buffer_miss 678659
Channel_0_WQ_row_buffer_hit 63884
Channel_0_WQ_row_buffer_miss 322973
Channel_0_WQ_full 0
Channel_0_dbus_congested 536361

avg_congested_cycle 10
