*************************************************
   ChampSim Multicore Out-of-Order Simulator
   Last compiled: Dec 23 2023 13:35:23
*************************************************

trace_0 ./test_trace/437.leslie3d-134B.champsimtrace.xz
CPU 0 L2C IP-based stride prefetcher
LLC Next Line Prefetcher
warmup_instructions 100000000
simulation_instructions 100000000
champsim_seed 218

num_cpus 1
cpu_freq 4000
dram_io_freq 2400
page_size 4096
block_size 64
max_read_per_cycle 8
max_fill_per_cycle 1
dram_channels 1
dram_ranks 1
dram_banks 8
dram_rows 65536
dram_columns 128
dram_row_size 8
dram_size 4096
dram_pages 1048576

fetch_width 6
decode_width 6
exec_width 4
lq_width 2
sq_width 2
retire_width 4
scheduler_size 128
branch_mispredict_penalty 20
rob_size 256
lq_size 72
sq_size 56
num_instr_destinations_sparc 4
num_instr_destinations 2
num_instr_sources 4

itlb_set 16
itlb_way 8
itlb_rq_size 16
itlb_wq_size 16
itlb_pq_size 0
itlb_mshr_size 8
itlb_latency 1

dtlb_set 16
dtlb_way 4
dtlb_rq_size 16
dtlb_wq_size 16
dtlb_pq_size 0
dtlb_mshr_size 8
dtlb_latency 1

stlb_set 128
stlb_way 12
stlb_rq_size 32
stlb_wq_size 32
stlb_pq_size 0
stlb_mshr_size 16
stlb_latency 8

l1i_size 32
l1i_set 64
l1i_way 8
l1i_rq_size 64
l1i_wq_size 64
l1i_pq_size 8
l1i_mshr_size 8
l1i_latency 1

l1d_size 32
l1d_set 64
l1d_way 8
l1d_rq_size 64
l1d_wq_size 64
l1d_pq_size 8
l1d_mshr_size 16
l1d_latency 4

l2c_size 512
l2c_set 1024
l2c_way 8
l2c_rq_size 32
l2c_wq_size 32
l2c_pq_size 16
l2c_mshr_size 32
l2c_latency 10

llc_size 2048
llc_set 2048
llc_way 16
llc_rq_size 32
llc_wq_size 32
llc_pq_size 32
llc_mshr_size 64
llc_latency 20

dram_channel_width 8
dram_wq_size 64
dram_rq_size 64
tRP 15
tRCD 15
tCAS 12.5
dram_dbus_turn_around_time 30
dram_write_high_wm 56
dram_write_low_wm 48
min_dram_writes_per_switch 16
dram_mtps 2400
dram_dbus_return_time 13


Heartbeat CPU  0 instructions:    1000002 cycles:     502248 heartbeat IPC: 1.99105 cumulative IPC: 1.99105 (Simulation time: 0 hr 0 min 1 sec) 
Heartbeat CPU  0 instructions:    2000001 cycles:     993702 heartbeat IPC: 2.03478 cumulative IPC: 2.01268 (Simulation time: 0 hr 0 min 2 sec) 
Heartbeat CPU  0 instructions:    3000001 cycles:    1490369 heartbeat IPC: 2.01342 cumulative IPC: 2.01292 (Simulation time: 0 hr 0 min 4 sec) 
Heartbeat CPU  0 instructions:    4000000 cycles:    1992110 heartbeat IPC: 1.99306 cumulative IPC: 2.00792 (Simulation time: 0 hr 0 min 5 sec) 
Heartbeat CPU  0 instructions:    5000000 cycles:    2494100 heartbeat IPC: 1.99207 cumulative IPC: 2.00473 (Simulation time: 0 hr 0 min 6 sec) 
Heartbeat CPU  0 instructions:    6000001 cycles:    2995909 heartbeat IPC: 1.99279 cumulative IPC: 2.00273 (Simulation time: 0 hr 0 min 8 sec) 
Heartbeat CPU  0 instructions:    7000000 cycles:    3482640 heartbeat IPC: 2.05452 cumulative IPC: 2.00997 (Simulation time: 0 hr 0 min 9 sec) 
Heartbeat CPU  0 instructions:    8000000 cycles:    3984329 heartbeat IPC: 1.99327 cumulative IPC: 2.00787 (Simulation time: 0 hr 0 min 10 sec) 
Heartbeat CPU  0 instructions:    9000001 cycles:    4485460 heartbeat IPC: 1.99549 cumulative IPC: 2.00648 (Simulation time: 0 hr 0 min 12 sec) 
Heartbeat CPU  0 instructions:   10000000 cycles:    4987394 heartbeat IPC: 1.99229 cumulative IPC: 2.00506 (Simulation time: 0 hr 0 min 13 sec) 
Heartbeat CPU  0 instructions:   11000001 cycles:    5481234 heartbeat IPC: 2.02495 cumulative IPC: 2.00685 (Simulation time: 0 hr 0 min 14 sec) 
Heartbeat CPU  0 instructions:   12000000 cycles:    5976040 heartbeat IPC: 2.02099 cumulative IPC: 2.00802 (Simulation time: 0 hr 0 min 16 sec) 
Heartbeat CPU  0 instructions:   13000003 cycles:    6477563 heartbeat IPC: 1.99393 cumulative IPC: 2.00693 (Simulation time: 0 hr 0 min 17 sec) 
Heartbeat CPU  0 instructions:   14000001 cycles:    6979077 heartbeat IPC: 1.99396 cumulative IPC: 2.00600 (Simulation time: 0 hr 0 min 18 sec) 
Heartbeat CPU  0 instructions:   15000003 cycles:    7480787 heartbeat IPC: 1.99319 cumulative IPC: 2.00514 (Simulation time: 0 hr 0 min 20 sec) 
Heartbeat CPU  0 instructions:   16000000 cycles:    7967829 heartbeat IPC: 2.05320 cumulative IPC: 2.00808 (Simulation time: 0 hr 0 min 21 sec) 
Heartbeat CPU  0 instructions:   17000001 cycles:    8469488 heartbeat IPC: 1.99339 cumulative IPC: 2.00721 (Simulation time: 0 hr 0 min 22 sec) 
Heartbeat CPU  0 instructions:   18000001 cycles:    8970830 heartbeat IPC: 1.99465 cumulative IPC: 2.00650 (Simulation time: 0 hr 0 min 24 sec) 
Heartbeat CPU  0 instructions:   19000003 cycles:    9471902 heartbeat IPC: 1.99573 cumulative IPC: 2.00593 (Simulation time: 0 hr 0 min 25 sec) 
Heartbeat CPU  0 instructions:   20000000 cycles:    9968641 heartbeat IPC: 2.01312 cumulative IPC: 2.00629 (Simulation time: 0 hr 0 min 26 sec) 
Heartbeat CPU  0 instructions:   21000001 cycles:   10460630 heartbeat IPC: 2.03257 cumulative IPC: 2.00753 (Simulation time: 0 hr 0 min 28 sec) 
Heartbeat CPU  0 instructions:   22000003 cycles:   10962604 heartbeat IPC: 1.99214 cumulative IPC: 2.00682 (Simulation time: 0 hr 0 min 29 sec) 
Heartbeat CPU  0 instructions:   23000001 cycles:   11464768 heartbeat IPC: 1.99138 cumulative IPC: 2.00615 (Simulation time: 0 hr 0 min 30 sec) 
Heartbeat CPU  0 instructions:   24000000 cycles:   11966124 heartbeat IPC: 1.99459 cumulative IPC: 2.00566 (Simulation time: 0 hr 0 min 31 sec) 
Heartbeat CPU  0 instructions:   25000003 cycles:   12452743 heartbeat IPC: 2.05500 cumulative IPC: 2.00759 (Simulation time: 0 hr 0 min 33 sec) 
Heartbeat CPU  0 instructions:   26000001 cycles:   12954659 heartbeat IPC: 1.99236 cumulative IPC: 2.00700 (Simulation time: 0 hr 0 min 34 sec) 
Heartbeat CPU  0 instructions:   27000003 cycles:   13456756 heartbeat IPC: 1.99165 cumulative IPC: 2.00643 (Simulation time: 0 hr 0 min 35 sec) 
Heartbeat CPU  0 instructions:   28000000 cycles:   13958609 heartbeat IPC: 1.99261 cumulative IPC: 2.00593 (Simulation time: 0 hr 0 min 37 sec) 
Heartbeat CPU  0 instructions:   29000002 cycles:   14455996 heartbeat IPC: 2.01051 cumulative IPC: 2.00609 (Simulation time: 0 hr 0 min 38 sec) 
Heartbeat CPU  0 instructions:   30000000 cycles:   14946531 heartbeat IPC: 2.03859 cumulative IPC: 2.00715 (Simulation time: 0 hr 0 min 39 sec) 
Heartbeat CPU  0 instructions:   31000002 cycles:   15448325 heartbeat IPC: 1.99285 cumulative IPC: 2.00669 (Simulation time: 0 hr 0 min 41 sec) 
Heartbeat CPU  0 instructions:   32000000 cycles:   15949768 heartbeat IPC: 1.99424 cumulative IPC: 2.00630 (Simulation time: 0 hr 0 min 42 sec) 
Heartbeat CPU  0 instructions:   33000001 cycles:   16451719 heartbeat IPC: 1.99223 cumulative IPC: 2.00587 (Simulation time: 0 hr 0 min 43 sec) 
Heartbeat CPU  0 instructions:   34000003 cycles:   16940130 heartbeat IPC: 2.04746 cumulative IPC: 2.00707 (Simulation time: 0 hr 0 min 45 sec) 
Heartbeat CPU  0 instructions:   35000000 cycles:   17439577 heartbeat IPC: 2.00221 cumulative IPC: 2.00693 (Simulation time: 0 hr 0 min 46 sec) 
Heartbeat CPU  0 instructions:   36000000 cycles:   17941012 heartbeat IPC: 1.99428 cumulative IPC: 2.00658 (Simulation time: 0 hr 0 min 47 sec) 
Heartbeat CPU  0 instructions:   37000003 cycles:   18442789 heartbeat IPC: 1.99292 cumulative IPC: 2.00620 (Simulation time: 0 hr 0 min 48 sec) 
Heartbeat CPU  0 instructions:   38000003 cycles:   18943479 heartbeat IPC: 1.99724 cumulative IPC: 2.00597 (Simulation time: 0 hr 0 min 50 sec) 
Heartbeat CPU  0 instructions:   39000003 cycles:   19430654 heartbeat IPC: 2.05265 cumulative IPC: 2.00714 (Simulation time: 0 hr 0 min 51 sec) 
Heartbeat CPU  0 instructions:   40000000 cycles:   19931844 heartbeat IPC: 1.99525 cumulative IPC: 2.00684 (Simulation time: 0 hr 0 min 52 sec) 
Heartbeat CPU  0 instructions:   41000001 cycles:   20433867 heartbeat IPC: 1.99194 cumulative IPC: 2.00647 (Simulation time: 0 hr 0 min 54 sec) 
Heartbeat CPU  0 instructions:   42000002 cycles:   20935859 heartbeat IPC: 1.99207 cumulative IPC: 2.00613 (Simulation time: 0 hr 0 min 55 sec) 
Heartbeat CPU  0 instructions:   43000003 cycles:   21427304 heartbeat IPC: 2.03482 cumulative IPC: 2.00679 (Simulation time: 0 hr 0 min 56 sec) 
Heartbeat CPU  0 instructions:   44000000 cycles:   21924090 heartbeat IPC: 2.01293 cumulative IPC: 2.00692 (Simulation time: 0 hr 0 min 58 sec) 
Heartbeat CPU  0 instructions:   45000001 cycles:   22425976 heartbeat IPC: 1.99249 cumulative IPC: 2.00660 (Simulation time: 0 hr 0 min 59 sec) 
Heartbeat CPU  0 instructions:   46000000 cycles:   22927574 heartbeat IPC: 1.99363 cumulative IPC: 2.00632 (Simulation time: 0 hr 1 min 1 sec) 
Heartbeat CPU  0 instructions:   47000002 cycles:   23429478 heartbeat IPC: 1.99242 cumulative IPC: 2.00602 (Simulation time: 0 hr 1 min 2 sec) 
Heartbeat CPU  0 instructions:   48000000 cycles:   23916021 heartbeat IPC: 2.05531 cumulative IPC: 2.00702 (Simulation time: 0 hr 1 min 3 sec) 
Heartbeat CPU  0 instructions:   49000002 cycles:   24417786 heartbeat IPC: 1.99297 cumulative IPC: 2.00673 (Simulation time: 0 hr 1 min 5 sec) 
Heartbeat CPU  0 instructions:   50000003 cycles:   24919037 heartbeat IPC: 1.99501 cumulative IPC: 2.00650 (Simulation time: 0 hr 1 min 6 sec) 
Heartbeat CPU  0 instructions:   51000003 cycles:   25420546 heartbeat IPC: 1.99398 cumulative IPC: 2.00625 (Simulation time: 0 hr 1 min 7 sec) 
Heartbeat CPU  0 instructions:   52000000 cycles:   25914052 heartbeat IPC: 2.02631 cumulative IPC: 2.00663 (Simulation time: 0 hr 1 min 9 sec) 
Heartbeat CPU  0 instructions:   53000001 cycles:   26409041 heartbeat IPC: 2.02025 cumulative IPC: 2.00689 (Simulation time: 0 hr 1 min 10 sec) 
Heartbeat CPU  0 instructions:   54000003 cycles:   26910627 heartbeat IPC: 1.99368 cumulative IPC: 2.00664 (Simulation time: 0 hr 1 min 12 sec) 
Heartbeat CPU  0 instructions:   55000000 cycles:   27412108 heartbeat IPC: 1.99409 cumulative IPC: 2.00641 (Simulation time: 0 hr 1 min 13 sec) 
Heartbeat CPU  0 instructions:   56000000 cycles:   27913525 heartbeat IPC: 1.99435 cumulative IPC: 2.00620 (Simulation time: 0 hr 1 min 14 sec) 
Heartbeat CPU  0 instructions:   57000002 cycles:   28400515 heartbeat IPC: 2.05343 cumulative IPC: 2.00701 (Simulation time: 0 hr 1 min 16 sec) 
Heartbeat CPU  0 instructions:   58000003 cycles:   28902142 heartbeat IPC: 1.99352 cumulative IPC: 2.00677 (Simulation time: 0 hr 1 min 17 sec) 
Heartbeat CPU  0 instructions:   59000001 cycles:   29403818 heartbeat IPC: 1.99331 cumulative IPC: 2.00654 (Simulation time: 0 hr 1 min 18 sec) 
Heartbeat CPU  0 instructions:   60000000 cycles:   29904827 heartbeat IPC: 1.99597 cumulative IPC: 2.00637 (Simulation time: 0 hr 1 min 20 sec) 
Heartbeat CPU  0 instructions:   61000000 cycles:   30400742 heartbeat IPC: 2.01647 cumulative IPC: 2.00653 (Simulation time: 0 hr 1 min 21 sec) 
Heartbeat CPU  0 instructions:   62000001 cycles:   30893149 heartbeat IPC: 2.03084 cumulative IPC: 2.00692 (Simulation time: 0 hr 1 min 22 sec) 
Heartbeat CPU  0 instructions:   63000001 cycles:   31395009 heartbeat IPC: 1.99259 cumulative IPC: 2.00669 (Simulation time: 0 hr 1 min 24 sec) 
Heartbeat CPU  0 instructions:   64000000 cycles:   31897191 heartbeat IPC: 1.99131 cumulative IPC: 2.00645 (Simulation time: 0 hr 1 min 25 sec) 
Heartbeat CPU  0 instructions:   65000000 cycles:   32398668 heartbeat IPC: 1.99411 cumulative IPC: 2.00626 (Simulation time: 0 hr 1 min 26 sec) 
Heartbeat CPU  0 instructions:   66000003 cycles:   32884900 heartbeat IPC: 2.05664 cumulative IPC: 2.00700 (Simulation time: 0 hr 1 min 28 sec) 
Heartbeat CPU  0 instructions:   67000000 cycles:   33386954 heartbeat IPC: 1.99181 cumulative IPC: 2.00677 (Simulation time: 0 hr 1 min 29 sec) 
Heartbeat CPU  0 instructions:   68000000 cycles:   33888834 heartbeat IPC: 1.99251 cumulative IPC: 2.00656 (Simulation time: 0 hr 1 min 30 sec) 
Heartbeat CPU  0 instructions:   69000001 cycles:   34390962 heartbeat IPC: 1.99153 cumulative IPC: 2.00634 (Simulation time: 0 hr 1 min 32 sec) 
Heartbeat CPU  0 instructions:   70000000 cycles:   34888054 heartbeat IPC: 2.01170 cumulative IPC: 2.00642 (Simulation time: 0 hr 1 min 33 sec) 
Heartbeat CPU  0 instructions:   71000001 cycles:   35378438 heartbeat IPC: 2.03922 cumulative IPC: 2.00687 (Simulation time: 0 hr 1 min 34 sec) 
Heartbeat CPU  0 instructions:   72000000 cycles:   35880677 heartbeat IPC: 1.99108 cumulative IPC: 2.00665 (Simulation time: 0 hr 1 min 36 sec) 
Heartbeat CPU  0 instructions:   73000002 cycles:   36381990 heartbeat IPC: 1.99477 cumulative IPC: 2.00649 (Simulation time: 0 hr 1 min 37 sec) 
Heartbeat CPU  0 instructions:   74000003 cycles:   36883832 heartbeat IPC: 1.99266 cumulative IPC: 2.00630 (Simulation time: 0 hr 1 min 39 sec) 
Heartbeat CPU  0 instructions:   75000001 cycles:   37372311 heartbeat IPC: 2.04717 cumulative IPC: 2.00683 (Simulation time: 0 hr 1 min 40 sec) 
Heartbeat CPU  0 instructions:   76000000 cycles:   37871716 heartbeat IPC: 2.00238 cumulative IPC: 2.00677 (Simulation time: 0 hr 1 min 41 sec) 
Heartbeat CPU  0 instructions:   77000000 cycles:   38373631 heartbeat IPC: 1.99237 cumulative IPC: 2.00659 (Simulation time: 0 hr 1 min 43 sec) 
Heartbeat CPU  0 instructions:   78000003 cycles:   38875208 heartbeat IPC: 1.99372 cumulative IPC: 2.00642 (Simulation time: 0 hr 1 min 44 sec) 
Heartbeat CPU  0 instructions:   79000001 cycles:   39375539 heartbeat IPC: 1.99867 cumulative IPC: 2.00632 (Simulation time: 0 hr 1 min 45 sec) 
Heartbeat CPU  0 instructions:   80000000 cycles:   39864032 heartbeat IPC: 2.04711 cumulative IPC: 2.00682 (Simulation time: 0 hr 1 min 47 sec) 
Heartbeat CPU  0 instructions:   81000003 cycles:   40364973 heartbeat IPC: 1.99625 cumulative IPC: 2.00669 (Simulation time: 0 hr 1 min 48 sec) 
Heartbeat CPU  0 instructions:   82000003 cycles:   40866580 heartbeat IPC: 1.99359 cumulative IPC: 2.00653 (Simulation time: 0 hr 1 min 49 sec) 
Heartbeat CPU  0 instructions:   83000001 cycles:   41368493 heartbeat IPC: 1.99237 cumulative IPC: 2.00636 (Simulation time: 0 hr 1 min 51 sec) 
Heartbeat CPU  0 instructions:   84000000 cycles:   41859704 heartbeat IPC: 2.03578 cumulative IPC: 2.00670 (Simulation time: 0 hr 1 min 52 sec) 
Heartbeat CPU  0 instructions:   85000002 cycles:   42357181 heartbeat IPC: 2.01015 cumulative IPC: 2.00674 (Simulation time: 0 hr 1 min 53 sec) 
Heartbeat CPU  0 instructions:   86000002 cycles:   42859048 heartbeat IPC: 1.99256 cumulative IPC: 2.00658 (Simulation time: 0 hr 1 min 55 sec) 
Heartbeat CPU  0 instructions:   87000002 cycles:   43360726 heartbeat IPC: 1.99331 cumulative IPC: 2.00642 (Simulation time: 0 hr 1 min 56 sec) 
Heartbeat CPU  0 instructions:   88000000 cycles:   43862684 heartbeat IPC: 1.99219 cumulative IPC: 2.00626 (Simulation time: 0 hr 1 min 57 sec) 
Heartbeat CPU  0 instructions:   89000003 cycles:   44349377 heartbeat IPC: 2.05469 cumulative IPC: 2.00679 (Simulation time: 0 hr 1 min 59 sec) 
Heartbeat CPU  0 instructions:   90000002 cycles:   44851517 heartbeat IPC: 1.99147 cumulative IPC: 2.00662 (Simulation time: 0 hr 2 min 0 sec) 
Heartbeat CPU  0 instructions:   91000000 cycles:   45352925 heartbeat IPC: 1.99438 cumulative IPC: 2.00649 (Simulation time: 0 hr 2 min 1 sec) 
Heartbeat CPU  0 instructions:   92000000 cycles:   45854659 heartbeat IPC: 1.99309 cumulative IPC: 2.00634 (Simulation time: 0 hr 2 min 3 sec) 
Heartbeat CPU  0 instructions:   93000002 cycles:   46347619 heartbeat IPC: 2.02857 cumulative IPC: 2.00658 (Simulation time: 0 hr 2 min 4 sec) 
Heartbeat CPU  0 instructions:   94000003 cycles:   46843377 heartbeat IPC: 2.01712 cumulative IPC: 2.00669 (Simulation time: 0 hr 2 min 5 sec) 
Heartbeat CPU  0 instructions:   95000003 cycles:   47344970 heartbeat IPC: 1.99365 cumulative IPC: 2.00655 (Simulation time: 0 hr 2 min 7 sec) 
Heartbeat CPU  0 instructions:   96000000 cycles:   47846691 heartbeat IPC: 1.99313 cumulative IPC: 2.00641 (Simulation time: 0 hr 2 min 8 sec) 
Heartbeat CPU  0 instructions:   97000000 cycles:   48348088 heartbeat IPC: 1.99443 cumulative IPC: 2.00628 (Simulation time: 0 hr 2 min 10 sec) 
Heartbeat CPU  0 instructions:   98000000 cycles:   48834799 heartbeat IPC: 2.05461 cumulative IPC: 2.00677 (Simulation time: 0 hr 2 min 11 sec) 
Heartbeat CPU  0 instructions:   99000002 cycles:   49336618 heartbeat IPC: 1.99275 cumulative IPC: 2.00662 (Simulation time: 0 hr 2 min 12 sec) 
Heartbeat CPU  0 instructions:  100000000 cycles:   49838328 heartbeat IPC: 1.99318 cumulative IPC: 2.00649 (Simulation time: 0 hr 2 min 13 sec) 

Warmup complete CPU  0 instructions:  100000003 cycles:   49838329 (Simulation time: 0 hr 2 min 13 sec) 

Heartbeat CPU  0 instructions:  101000001 cycles:   50685535 heartbeat IPC: 1.18035 cumulative IPC: 1.18035 (Simulation time: 0 hr 2 min 15 sec) 
Heartbeat CPU  0 instructions:  102000002 cycles:   51540211 heartbeat IPC: 1.17004 cumulative IPC: 1.17517 (Simulation time: 0 hr 2 min 17 sec) 
Heartbeat CPU  0 instructions:  103000002 cycles:   52405464 heartbeat IPC: 1.15573 cumulative IPC: 1.16862 (Simulation time: 0 hr 2 min 18 sec) 
Heartbeat CPU  0 instructions:  104000000 cycles:   53267701 heartbeat IPC: 1.15977 cumulative IPC: 1.16639 (Simulation time: 0 hr 2 min 20 sec) 
Heartbeat CPU  0 instructions:  105000000 cycles:   54107596 heartbeat IPC: 1.19063 cumulative IPC: 1.17116 (Simulation time: 0 hr 2 min 21 sec) 
Heartbeat CPU  0 instructions:  106000001 cycles:   54953189 heartbeat IPC: 1.18260 cumulative IPC: 1.17305 (Simulation time: 0 hr 2 min 23 sec) 
Heartbeat CPU  0 instructions:  107000002 cycles:   55814317 heartbeat IPC: 1.16127 cumulative IPC: 1.17135 (Simulation time: 0 hr 2 min 24 sec) 
Heartbeat CPU  0 instructions:  108000000 cycles:   56671949 heartbeat IPC: 1.16600 cumulative IPC: 1.17068 (Simulation time: 0 hr 2 min 26 sec) 
Heartbeat CPU  0 instructions:  109000003 cycles:   57533884 heartbeat IPC: 1.16018 cumulative IPC: 1.16951 (Simulation time: 0 hr 2 min 27 sec) 
Heartbeat CPU  0 instructions:  110000001 cycles:   58380603 heartbeat IPC: 1.18103 cumulative IPC: 1.17065 (Simulation time: 0 hr 2 min 29 sec) 
Heartbeat CPU  0 instructions:  111000003 cycles:   59221816 heartbeat IPC: 1.18876 cumulative IPC: 1.17227 (Simulation time: 0 hr 2 min 30 sec) 
Heartbeat CPU  0 instructions:  112000000 cycles:   60082001 heartbeat IPC: 1.16254 cumulative IPC: 1.17145 (Simulation time: 0 hr 2 min 32 sec) 
Heartbeat CPU  0 instructions:  113000001 cycles:   60937533 heartbeat IPC: 1.16886 cumulative IPC: 1.17125 (Simulation time: 0 hr 2 min 33 sec) 
Heartbeat CPU  0 instructions:  114000002 cycles:   61797504 heartbeat IPC: 1.16283 cumulative IPC: 1.17065 (Simulation time: 0 hr 2 min 35 sec) 
Heartbeat CPU  0 instructions:  115000000 cycles:   62649953 heartbeat IPC: 1.17309 cumulative IPC: 1.17081 (Simulation time: 0 hr 2 min 36 sec) 
Heartbeat CPU  0 instructions:  116000000 cycles:   63498028 heartbeat IPC: 1.17914 cumulative IPC: 1.17133 (Simulation time: 0 hr 2 min 38 sec) 
Heartbeat CPU  0 instructions:  117000002 cycles:   64351125 heartbeat IPC: 1.17220 cumulative IPC: 1.17138 (Simulation time: 0 hr 2 min 39 sec) 
Heartbeat CPU  0 instructions:  118000002 cycles:   65204591 heartbeat IPC: 1.17169 cumulative IPC: 1.17140 (Simulation time: 0 hr 2 min 41 sec) 
Heartbeat CPU  0 instructions:  119000002 cycles:   66065156 heartbeat IPC: 1.16203 cumulative IPC: 1.17090 (Simulation time: 0 hr 2 min 42 sec) 
Heartbeat CPU  0 instructions:  120000000 cycles:   66923416 heartbeat IPC: 1.16515 cumulative IPC: 1.17061 (Simulation time: 0 hr 2 min 44 sec) 
Heartbeat CPU  0 instructions:  121000001 cycles:   67770428 heartbeat IPC: 1.18062 cumulative IPC: 1.17108 (Simulation time: 0 hr 2 min 45 sec) 
Heartbeat CPU  0 instructions:  122000002 cycles:   68619876 heartbeat IPC: 1.17724 cumulative IPC: 1.17136 (Simulation time: 0 hr 2 min 47 sec) 
Heartbeat CPU  0 instructions:  123000001 cycles:   69469648 heartbeat IPC: 1.17679 cumulative IPC: 1.17160 (Simulation time: 0 hr 2 min 49 sec) 
Heartbeat CPU  0 instructions:  124000000 cycles:   70332327 heartbeat IPC: 1.15918 cumulative IPC: 1.17107 (Simulation time: 0 hr 2 min 50 sec) 
Heartbeat CPU  0 instructions:  125000000 cycles:   71201161 heartbeat IPC: 1.15097 cumulative IPC: 1.17026 (Simulation time: 0 hr 2 min 52 sec) 
Heartbeat CPU  0 instructions:  126000000 cycles:   72038525 heartbeat IPC: 1.19422 cumulative IPC: 1.17116 (Simulation time: 0 hr 2 min 53 sec) 
Heartbeat CPU  0 instructions:  127000000 cycles:   72885482 heartbeat IPC: 1.18070 cumulative IPC: 1.17151 (Simulation time: 0 hr 2 min 55 sec) 
Heartbeat CPU  0 instructions:  128000000 cycles:   73734231 heartbeat IPC: 1.17820 cumulative IPC: 1.17175 (Simulation time: 0 hr 2 min 56 sec) 
Heartbeat CPU  0 instructions:  129000002 cycles:   74592433 heartbeat IPC: 1.16523 cumulative IPC: 1.17152 (Simulation time: 0 hr 2 min 57 sec) 
Heartbeat CPU  0 instructions:  130000002 cycles:   75465582 heartbeat IPC: 1.14528 cumulative IPC: 1.17063 (Simulation time: 0 hr 2 min 59 sec) 
Heartbeat CPU  0 instructions:  131000002 cycles:   76306058 heartbeat IPC: 1.18980 cumulative IPC: 1.17124 (Simulation time: 0 hr 3 min 0 sec) 
Heartbeat CPU  0 instructions:  132000000 cycles:   77150280 heartbeat IPC: 1.18452 cumulative IPC: 1.17165 (Simulation time: 0 hr 3 min 2 sec) 
Heartbeat CPU  0 instructions:  133000000 cycles:   77999895 heartbeat IPC: 1.17700 cumulative IPC: 1.17181 (Simulation time: 0 hr 3 min 4 sec) 
Heartbeat CPU  0 instructions:  134000000 cycles:   78860064 heartbeat IPC: 1.16256 cumulative IPC: 1.17154 (Simulation time: 0 hr 3 min 5 sec) 
Heartbeat CPU  0 instructions:  135000002 cycles:   79729716 heartbeat IPC: 1.14989 cumulative IPC: 1.17091 (Simulation time: 0 hr 3 min 7 sec) 
Heartbeat CPU  0 instructions:  136000000 cycles:   80573723 heartbeat IPC: 1.18482 cumulative IPC: 1.17129 (Simulation time: 0 hr 3 min 8 sec) 
Heartbeat CPU  0 instructions:  137000001 cycles:   81416334 heartbeat IPC: 1.18679 cumulative IPC: 1.17170 (Simulation time: 0 hr 3 min 10 sec) 
Heartbeat CPU  0 instructions:  138000003 cycles:   82268187 heartbeat IPC: 1.17391 cumulative IPC: 1.17176 (Simulation time: 0 hr 3 min 11 sec) 
Heartbeat CPU  0 instructions:  139000003 cycles:   83127119 heartbeat IPC: 1.16424 cumulative IPC: 1.17157 (Simulation time: 0 hr 3 min 13 sec) 
Heartbeat CPU  0 instructions:  140000000 cycles:   83993576 heartbeat IPC: 1.15412 cumulative IPC: 1.17112 (Simulation time: 0 hr 3 min 14 sec) 
Heartbeat CPU  0 instructions:  141000003 cycles:   84842081 heartbeat IPC: 1.17855 cumulative IPC: 1.17130 (Simulation time: 0 hr 3 min 16 sec) 
Heartbeat CPU  0 instructions:  142000000 cycles:   85681173 heartbeat IPC: 1.19176 cumulative IPC: 1.17178 (Simulation time: 0 hr 3 min 17 sec) 
Heartbeat CPU  0 instructions:  143000001 cycles:   86530982 heartbeat IPC: 1.17674 cumulative IPC: 1.17190 (Simulation time: 0 hr 3 min 19 sec) 
Heartbeat CPU  0 instructions:  144000000 cycles:   87390484 heartbeat IPC: 1.16346 cumulative IPC: 1.17170 (Simulation time: 0 hr 3 min 21 sec) 
Heartbeat CPU  0 instructions:  145000002 cycles:   88255676 heartbeat IPC: 1.15582 cumulative IPC: 1.17135 (Simulation time: 0 hr 3 min 22 sec) 
Heartbeat CPU  0 instructions:  146000002 cycles:   89111378 heartbeat IPC: 1.16863 cumulative IPC: 1.17129 (Simulation time: 0 hr 3 min 24 sec) 
Heartbeat CPU  0 instructions:  147000002 cycles:   90002531 heartbeat IPC: 1.12214 cumulative IPC: 1.17020 (Simulation time: 0 hr 3 min 25 sec) 
Heartbeat CPU  0 instructions:  148000000 cycles:   91145264 heartbeat IPC: 0.87509 cumulative IPC: 1.16203 (Simulation time: 0 hr 3 min 27 sec) 
Heartbeat CPU  0 instructions:  149000002 cycles:   92294335 heartbeat IPC: 0.87027 cumulative IPC: 1.15414 (Simulation time: 0 hr 3 min 28 sec) 
Heartbeat CPU  0 instructions:  150000002 cycles:   93449681 heartbeat IPC: 0.86554 cumulative IPC: 1.14649 (Simulation time: 0 hr 3 min 30 sec) 
Heartbeat CPU  0 instructions:  151000000 cycles:   94602356 heartbeat IPC: 0.86755 cumulative IPC: 1.13931 (Simulation time: 0 hr 3 min 32 sec) 
Heartbeat CPU  0 instructions:  152000000 cycles:   95755524 heartbeat IPC: 0.86718 cumulative IPC: 1.13247 (Simulation time: 0 hr 3 min 33 sec) 
Heartbeat CPU  0 instructions:  153000003 cycles:   96909857 heartbeat IPC: 0.86630 cumulative IPC: 1.12595 (Simulation time: 0 hr 3 min 35 sec) 
Heartbeat CPU  0 instructions:  154000002 cycles:   98068851 heartbeat IPC: 0.86282 cumulative IPC: 1.11962 (Simulation time: 0 hr 3 min 37 sec) 
Heartbeat CPU  0 instructions:  155000003 cycles:   99224066 heartbeat IPC: 0.86564 cumulative IPC: 1.11368 (Simulation time: 0 hr 3 min 38 sec) 
Heartbeat CPU  0 instructions:  156000000 cycles:  100374405 heartbeat IPC: 0.86931 cumulative IPC: 1.10812 (Simulation time: 0 hr 3 min 40 sec) 
Heartbeat CPU  0 instructions:  157000003 cycles:  101533285 heartbeat IPC: 0.86290 cumulative IPC: 1.10262 (Simulation time: 0 hr 3 min 42 sec) 
Heartbeat CPU  0 instructions:  158000003 cycles:  102683909 heartbeat IPC: 0.86909 cumulative IPC: 1.09754 (Simulation time: 0 hr 3 min 43 sec) 
Heartbeat CPU  0 instructions:  159000003 cycles:  103845090 heartbeat IPC: 0.86119 cumulative IPC: 1.09246 (Simulation time: 0 hr 3 min 45 sec) 
Heartbeat CPU  0 instructions:  160000000 cycles:  105010174 heartbeat IPC: 0.85830 cumulative IPC: 1.08751 (Simulation time: 0 hr 3 min 47 sec) 
Heartbeat CPU  0 instructions:  161000000 cycles:  106156752 heartbeat IPC: 0.87216 cumulative IPC: 1.08313 (Simulation time: 0 hr 3 min 48 sec) 
Heartbeat CPU  0 instructions:  162000000 cycles:  107317179 heartbeat IPC: 0.86175 cumulative IPC: 1.07866 (Simulation time: 0 hr 3 min 50 sec) 
Heartbeat CPU  0 instructions:  163000002 cycles:  108482816 heartbeat IPC: 0.85790 cumulative IPC: 1.07427 (Simulation time: 0 hr 3 min 52 sec) 
Heartbeat CPU  0 instructions:  164000000 cycles:  109631823 heartbeat IPC: 0.87031 cumulative IPC: 1.07035 (Simulation time: 0 hr 3 min 53 sec) 
Heartbeat CPU  0 instructions:  165000001 cycles:  110789335 heartbeat IPC: 0.86392 cumulative IPC: 1.06643 (Simulation time: 0 hr 3 min 55 sec) 
Heartbeat CPU  0 instructions:  166000001 cycles:  111947735 heartbeat IPC: 0.86326 cumulative IPC: 1.06264 (Simulation time: 0 hr 3 min 57 sec) 
Heartbeat CPU  0 instructions:  167000001 cycles:  113097806 heartbeat IPC: 0.86951 cumulative IPC: 1.05913 (Simulation time: 0 hr 3 min 58 sec) 
Heartbeat CPU  0 instructions:  168000000 cycles:  114258548 heartbeat IPC: 0.86152 cumulative IPC: 1.05557 (Simulation time: 0 hr 4 min 0 sec) 
Heartbeat CPU  0 instructions:  169000002 cycles:  115409893 heartbeat IPC: 0.86855 cumulative IPC: 1.05229 (Simulation time: 0 hr 4 min 1 sec) 
Heartbeat CPU  0 instructions:  170000002 cycles:  116563080 heartbeat IPC: 0.86716 cumulative IPC: 1.04909 (Simulation time: 0 hr 4 min 3 sec) 
Heartbeat CPU  0 instructions:  171000002 cycles:  117714762 heartbeat IPC: 0.86830 cumulative IPC: 1.04602 (Simulation time: 0 hr 4 min 5 sec) 
Heartbeat CPU  0 instructions:  172000000 cycles:  118869224 heartbeat IPC: 0.86620 cumulative IPC: 1.04301 (Simulation time: 0 hr 4 min 6 sec) 
Heartbeat CPU  0 instructions:  173000002 cycles:  120019659 heartbeat IPC: 0.86924 cumulative IPC: 1.04016 (Simulation time: 0 hr 4 min 8 sec) 
Heartbeat CPU  0 instructions:  174000002 cycles:  121177276 heartbeat IPC: 0.86384 cumulative IPC: 1.03730 (Simulation time: 0 hr 4 min 10 sec) 
Heartbeat CPU  0 instructions:  175000002 cycles:  122336216 heartbeat IPC: 0.86286 cumulative IPC: 1.03451 (Simulation time: 0 hr 4 min 11 sec) 
Heartbeat CPU  0 instructions:  176000000 cycles:  123487130 heartbeat IPC: 0.86887 cumulative IPC: 1.03192 (Simulation time: 0 hr 4 min 13 sec) 
Heartbeat CPU  0 instructions:  177000003 cycles:  124650078 heartbeat IPC: 0.85989 cumulative IPC: 1.02925 (Simulation time: 0 hr 4 min 15 sec) 
Heartbeat CPU  0 instructions:  178000000 cycles:  125804074 heartbeat IPC: 0.86655 cumulative IPC: 1.02678 (Simulation time: 0 hr 4 min 16 sec) 
Heartbeat CPU  0 instructions:  179000002 cycles:  126956006 heartbeat IPC: 0.86811 cumulative IPC: 1.02441 (Simulation time: 0 hr 4 min 18 sec) 
Heartbeat CPU  0 instructions:  180000000 cycles:  128108727 heartbeat IPC: 0.86751 cumulative IPC: 1.02210 (Simulation time: 0 hr 4 min 20 sec) 
Heartbeat CPU  0 instructions:  181000003 cycles:  129260447 heartbeat IPC: 0.86827 cumulative IPC: 1.01987 (Simulation time: 0 hr 4 min 21 sec) 
Heartbeat CPU  0 instructions:  182000002 cycles:  130411194 heartbeat IPC: 0.86900 cumulative IPC: 1.01771 (Simulation time: 0 hr 4 min 23 sec) 
Heartbeat CPU  0 instructions:  183000000 cycles:  131564512 heartbeat IPC: 0.86706 cumulative IPC: 1.01559 (Simulation time: 0 hr 4 min 25 sec) 
Heartbeat CPU  0 instructions:  184000000 cycles:  132717592 heartbeat IPC: 0.86724 cumulative IPC: 1.01352 (Simulation time: 0 hr 4 min 26 sec) 
Heartbeat CPU  0 instructions:  185000003 cycles:  133872429 heartbeat IPC: 0.86593 cumulative IPC: 1.01149 (Simulation time: 0 hr 4 min 28 sec) 
Heartbeat CPU  0 instructions:  186000001 cycles:  135024513 heartbeat IPC: 0.86799 cumulative IPC: 1.00955 (Simulation time: 0 hr 4 min 30 sec) 
Heartbeat CPU  0 instructions:  187000002 cycles:  136182623 heartbeat IPC: 0.86348 cumulative IPC: 1.00759 (Simulation time: 0 hr 4 min 31 sec) 
Heartbeat CPU  0 instructions:  188000000 cycles:  137333334 heartbeat IPC: 0.86903 cumulative IPC: 1.00577 (Simulation time: 0 hr 4 min 33 sec) 
Heartbeat CPU  0 instructions:  189000001 cycles:  138489921 heartbeat IPC: 0.86461 cumulative IPC: 1.00393 (Simulation time: 0 hr 4 min 35 sec) 
Heartbeat CPU  0 instructions:  190000003 cycles:  139644579 heartbeat IPC: 0.86606 cumulative IPC: 1.00216 (Simulation time: 0 hr 4 min 36 sec) 
Heartbeat CPU  0 instructions:  191000002 cycles:  140797133 heartbeat IPC: 0.86764 cumulative IPC: 1.00045 (Simulation time: 0 hr 4 min 38 sec) 
Heartbeat CPU  0 instructions:  192000000 cycles:  141957622 heartbeat IPC: 0.86170 cumulative IPC: 0.99870 (Simulation time: 0 hr 4 min 40 sec) 
Heartbeat CPU  0 instructions:  193000003 cycles:  143099436 heartbeat IPC: 0.87580 cumulative IPC: 0.99720 (Simulation time: 0 hr 4 min 41 sec) 
Heartbeat CPU  0 instructions:  194000002 cycles:  146853742 heartbeat IPC: 0.26636 cumulative IPC: 0.96892 (Simulation time: 0 hr 4 min 44 sec) 
Heartbeat CPU  0 instructions:  195000000 cycles:  150567155 heartbeat IPC: 0.26929 cumulative IPC: 0.94313 (Simulation time: 0 hr 4 min 47 sec) 
Heartbeat CPU  0 instructions:  196000000 cycles:  151295862 heartbeat IPC: 1.37229 cumulative IPC: 0.94621 (Simulation time: 0 hr 4 min 49 sec) 
Heartbeat CPU  0 instructions:  197000000 cycles:  152024384 heartbeat IPC: 1.37264 cumulative IPC: 0.94925 (Simulation time: 0 hr 4 min 50 sec) 
Heartbeat CPU  0 instructions:  198000003 cycles:  152751958 heartbeat IPC: 1.37443 cumulative IPC: 0.95225 (Simulation time: 0 hr 4 min 52 sec) 
Heartbeat CPU  0 instructions:  199000002 cycles:  153483025 heartbeat IPC: 1.36786 cumulative IPC: 0.95519 (Simulation time: 0 hr 4 min 54 sec) 
Heartbeat CPU  0 instructions:  200000000 cycles:  154210224 heartbeat IPC: 1.37514 cumulative IPC: 0.95811 (Simulation time: 0 hr 4 min 55 sec) 
Finished CPU 0 instructions: 100000000 cycles: 104371924 cumulative IPC: 0.95811 (Simulation time: 0 hr 4 min 55 sec) 

ChampSim completed all CPUs

[ROI Statistics]
Core_0_instructions 100000000
Core_0_cycles 104371924
Core_0_IPC 0.95811

Core_0_branch_prediction_accuracy 99.15344
Core_0_branch_MPKI 0.35029
Core_0_average_ROB_occupancy_at_mispredict 249.75760

Core_0_L1D_total_access 27525619
Core_0_L1D_total_hit 26083818
Core_0_L1D_total_miss 1441801
Core_0_L1D_loads 23044389
Core_0_L1D_load_hit 21939583
Core_0_L1D_load_miss 1104806
Core_0_L1D_RFOs 4481230
Core_0_L1D_RFO_hit 4144235
Core_0_L1D_RFO_miss 336995
Core_0_L1D_prefetches 0
Core_0_L1D_prefetch_hit 0
Core_0_L1D_prefetch_miss 0
Core_0_L1D_writebacks 0
Core_0_L1D_writeback_hit 0
Core_0_L1D_writeback_miss 0
Core_0_L1D_prefetch_requested 0
Core_0_L1D_prefetch_issued 0
Core_0_L1D_prefetch_useful 0
Core_0_L1D_prefetch_useless 0
Core_0_L1D_prefetch_late 0
Core_0_L1D_average_miss_latency 68.86825

Core_0_L1I_total_access 22671948
Core_0_L1I_total_hit 22671728
Core_0_L1I_total_miss 220
Core_0_L1I_loads 22671948
Core_0_L1I_load_hit 22671728
Core_0_L1I_load_miss 220
Core_0_L1I_RFOs 0
Core_0_L1I_RFO_hit 0
Core_0_L1I_RFO_miss 0
Core_0_L1I_prefetches 0
Core_0_L1I_prefetch_hit 0
Core_0_L1I_prefetch_miss 0
Core_0_L1I_writebacks 0
Core_0_L1I_writeback_hit 0
Core_0_L1I_writeback_miss 0
Core_0_L1I_prefetch_requested 0
Core_0_L1I_prefetch_issued 0
Core_0_L1I_prefetch_useful 0
Core_0_L1I_prefetch_useless 0
Core_0_L1I_prefetch_late 0
Core_0_L1I_average_miss_latency 226.88182

Core_0_L2C_total_access 4110920
Core_0_L2C_total_hit 3060904
Core_0_L2C_total_miss 1050016
Core_0_L2C_loads 1105021
Core_0_L2C_load_hit 917896
Core_0_L2C_load_miss 187125
Core_0_L2C_RFOs 336942
Core_0_L2C_RFO_hit 119447
Core_0_L2C_RFO_miss 217495
Core_0_L2C_prefetches 2115824
Core_0_L2C_prefetch_hit 1470566
Core_0_L2C_prefetch_miss 645258
Core_0_L2C_writebacks 553133
Core_0_L2C_writeback_hit 552995
Core_0_L2C_writeback_miss 138
Core_0_L2C_prefetch_requested 5115563
Core_0_L2C_prefetch_issued 5106265
Core_0_L2C_prefetch_useful 1040760
Core_0_L2C_prefetch_useless 86302
Core_0_L2C_prefetch_late 64743
Core_0_L2C_average_miss_latency 149.02150

Core_0_LLC_total_access 1878857
Core_0_LLC_total_hit 924696
Core_0_LLC_total_miss 954161
Core_0_LLC_loads 122382
Core_0_LLC_load_hit 64239
Core_0_LLC_load_miss 58143
Core_0_LLC_RFOs 217490
Core_0_LLC_RFO_hit 25995
Core_0_LLC_RFO_miss 191495
Core_0_LLC_prefetches 1130247
Core_0_LLC_prefetch_hit 426924
Core_0_LLC_prefetch_miss 703323
Core_0_LLC_writebacks 408738
Core_0_LLC_writeback_hit 407538
Core_0_LLC_writeback_miss 1200
Core_0_LLC_prefetch_requested 1220292
Core_0_LLC_prefetch_issued 1201056
Core_0_LLC_prefetch_useful 141345
Core_0_LLC_prefetch_useless 900621
Core_0_LLC_prefetch_late 5045
Core_0_LLC_average_miss_latency 248.22742

Core_0_major_page_fault 0
Core_0_minor_page_fault 15627

CPU 0 L2C PC-based stride prefetcher final stats
LLC Next Line Prefetcher Final Stats: none
Channel_0_RQ_row_buffer_hit 320547
Channel_0_RQ_row_buffer_miss 632413
Channel_0_WQ_row_buffer_hit 104086
Channel_0_WQ_row_buffer_miss 281499
Channel_0_WQ_full 0
Channel_0_dbus_congested 428034

avg_congested_cycle 10
