*************************************************
   ChampSim Multicore Out-of-Order Simulator
   Last compiled: Dec 23 2023 14:11:19
*************************************************

trace_0 ./test_trace/437.leslie3d-134B.champsimtrace.xz
CPU 0 L1D next line prefetcher
CPU 0 L2C next line prefetcher
Initialize DRRIP state
Assign rand_sets[0]: 454  LLC: 2048
rand_sets[0]: 454
Assign rand_sets[1]: 1662  LLC: 2048
rand_sets[1]: 1662
Assign rand_sets[2]: 1921  LLC: 2048
rand_sets[2]: 1921
Assign rand_sets[3]: 1131  LLC: 2048
rand_sets[3]: 1131
Assign rand_sets[4]: 331  LLC: 2048
rand_sets[4]: 331
Assign rand_sets[5]: 1531  LLC: 2048
rand_sets[5]: 1531
Assign rand_sets[6]: 482  LLC: 2048
rand_sets[6]: 482
Assign rand_sets[7]: 1275  LLC: 2048
rand_sets[7]: 1275
Assign rand_sets[8]: 1876  LLC: 2048
rand_sets[8]: 1876
Assign rand_sets[9]: 2038  LLC: 2048
rand_sets[9]: 2038
Assign rand_sets[10]: 701  LLC: 2048
rand_sets[10]: 701
Assign rand_sets[11]: 479  LLC: 2048
rand_sets[11]: 479
Assign rand_sets[12]: 892  LLC: 2048
rand_sets[12]: 892
Assign rand_sets[13]: 1820  LLC: 2048
rand_sets[13]: 1820
Assign rand_sets[14]: 1505  LLC: 2048
rand_sets[14]: 1505
Assign rand_sets[15]: 1159  LLC: 2048
rand_sets[15]: 1159
Assign rand_sets[16]: 513  LLC: 2048
rand_sets[16]: 513
Assign rand_sets[17]: 703  LLC: 2048
rand_sets[17]: 703
Assign rand_sets[18]: 561  LLC: 2048
rand_sets[18]: 561
Assign rand_sets[19]: 990  LLC: 2048
rand_sets[19]: 990
Assign rand_sets[20]: 342  LLC: 2048
rand_sets[20]: 342
Assign rand_sets[21]: 882  LLC: 2048
rand_sets[21]: 882
Assign rand_sets[22]: 15  LLC: 2048
rand_sets[22]: 15
Assign rand_sets[23]: 71  LLC: 2048
rand_sets[23]: 71
Assign rand_sets[24]: 1127  LLC: 2048
rand_sets[24]: 1127
Assign rand_sets[25]: 1382  LLC: 2048
rand_sets[25]: 1382
Assign rand_sets[26]: 647  LLC: 2048
rand_sets[26]: 647
Assign rand_sets[27]: 857  LLC: 2048
rand_sets[27]: 857
Assign rand_sets[28]: 1450  LLC: 2048
rand_sets[28]: 1450
Assign rand_sets[29]: 1160  LLC: 2048
rand_sets[29]: 1160
Assign rand_sets[30]: 1852  LLC: 2048
rand_sets[30]: 1852
Assign rand_sets[31]: 1881  LLC: 2048
rand_sets[31]: 1881
Assign rand_sets[32]: 1770  LLC: 2048
rand_sets[32]: 1770
Assign rand_sets[33]: 1622  LLC: 2048
rand_sets[33]: 1622
Assign rand_sets[34]: 275  LLC: 2048
rand_sets[34]: 275
Assign rand_sets[35]: 635  LLC: 2048
rand_sets[35]: 635
Assign rand_sets[36]: 466  LLC: 2048
rand_sets[36]: 466
Assign rand_sets[37]: 1413  LLC: 2048
rand_sets[37]: 1413
Assign rand_sets[38]: 417  LLC: 2048
rand_sets[38]: 417
Assign rand_sets[39]: 472  LLC: 2048
rand_sets[39]: 472
Assign rand_sets[40]: 1340  LLC: 2048
rand_sets[40]: 1340
Assign rand_sets[41]: 852  LLC: 2048
rand_sets[41]: 852
Assign rand_sets[42]: 1365  LLC: 2048
rand_sets[42]: 1365
Assign rand_sets[43]: 47  LLC: 2048
rand_sets[43]: 47
Assign rand_sets[44]: 823  LLC: 2048
rand_sets[44]: 823
Assign rand_sets[45]: 686  LLC: 2048
rand_sets[45]: 686
Assign rand_sets[46]: 1637  LLC: 2048
rand_sets[46]: 1637
Assign rand_sets[47]: 1115  LLC: 2048
rand_sets[47]: 1115
Assign rand_sets[48]: 986  LLC: 2048
rand_sets[48]: 986
Assign rand_sets[49]: 258  LLC: 2048
rand_sets[49]: 258
Assign rand_sets[50]: 633  LLC: 2048
rand_sets[50]: 633
Assign rand_sets[51]: 920  LLC: 2048
rand_sets[51]: 920
Assign rand_sets[52]: 204  LLC: 2048
rand_sets[52]: 204
Assign rand_sets[53]: 227  LLC: 2048
rand_sets[53]: 227
Assign rand_sets[54]: 1818  LLC: 2048
rand_sets[54]: 1818
Assign rand_sets[55]: 886  LLC: 2048
rand_sets[55]: 886
Assign rand_sets[56]: 1422  LLC: 2048
rand_sets[56]: 1422
Assign rand_sets[57]: 607  LLC: 2048
rand_sets[57]: 607
Assign rand_sets[58]: 217  LLC: 2048
rand_sets[58]: 217
Assign rand_sets[59]: 1945  LLC: 2048
rand_sets[59]: 1945
Assign rand_sets[60]: 143  LLC: 2048
rand_sets[60]: 143
Assign rand_sets[61]: 1311  LLC: 2048
rand_sets[61]: 1311
Assign rand_sets[62]: 319  LLC: 2048
rand_sets[62]: 319
Assign rand_sets[63]: 1846  LLC: 2048
rand_sets[63]: 1846
LLC Next Line Prefetcher
warmup_instructions 100000000
simulation_instructions 100000000
champsim_seed 218

num_cpus 1
cpu_freq 4000
dram_io_freq 2400
page_size 4096
block_size 64
max_read_per_cycle 8
max_fill_per_cycle 1
dram_channels 1
dram_ranks 1
dram_banks 8
dram_rows 65536
dram_columns 128
dram_row_size 8
dram_size 4096
dram_pages 1048576

fetch_width 6
decode_width 6
exec_width 4
lq_width 2
sq_width 2
retire_width 4
scheduler_size 128
branch_mispredict_penalty 20
rob_size 256
lq_size 72
sq_size 56
num_instr_destinations_sparc 4
num_instr_destinations 2
num_instr_sources 4

itlb_set 16
itlb_way 8
itlb_rq_size 16
itlb_wq_size 16
itlb_pq_size 0
itlb_mshr_size 8
itlb_latency 1

dtlb_set 16
dtlb_way 4
dtlb_rq_size 16
dtlb_wq_size 16
dtlb_pq_size 0
dtlb_mshr_size 8
dtlb_latency 1

stlb_set 128
stlb_way 12
stlb_rq_size 32
stlb_wq_size 32
stlb_pq_size 0
stlb_mshr_size 16
stlb_latency 8

l1i_size 32
l1i_set 64
l1i_way 8
l1i_rq_size 64
l1i_wq_size 64
l1i_pq_size 8
l1i_mshr_size 8
l1i_latency 1

l1d_size 32
l1d_set 64
l1d_way 8
l1d_rq_size 64
l1d_wq_size 64
l1d_pq_size 8
l1d_mshr_size 16
l1d_latency 4

l2c_size 512
l2c_set 1024
l2c_way 8
l2c_rq_size 32
l2c_wq_size 32
l2c_pq_size 16
l2c_mshr_size 32
l2c_latency 10

llc_size 2048
llc_set 2048
llc_way 16
llc_rq_size 32
llc_wq_size 32
llc_pq_size 32
llc_mshr_size 64
llc_latency 20

dram_channel_width 8
dram_wq_size 64
dram_rq_size 64
tRP 15
tRCD 15
tCAS 12.5
dram_dbus_turn_around_time 30
dram_write_high_wm 56
dram_write_low_wm 48
min_dram_writes_per_switch 16
dram_mtps 2400
dram_dbus_return_time 13


Heartbeat CPU  0 instructions:    1000002 cycles:     502359 heartbeat IPC: 1.99061 cumulative IPC: 1.99061 (Simulation time: 0 hr 0 min 2 sec) 
Heartbeat CPU  0 instructions:    2000001 cycles:     993968 heartbeat IPC: 2.03413 cumulative IPC: 2.01214 (Simulation time: 0 hr 0 min 3 sec) 
Heartbeat CPU  0 instructions:    3000001 cycles:    1490691 heartbeat IPC: 2.01319 cumulative IPC: 2.01249 (Simulation time: 0 hr 0 min 4 sec) 
Heartbeat CPU  0 instructions:    4000000 cycles:    1992310 heartbeat IPC: 1.99354 cumulative IPC: 2.00772 (Simulation time: 0 hr 0 min 6 sec) 
Heartbeat CPU  0 instructions:    5000000 cycles:    2494155 heartbeat IPC: 1.99265 cumulative IPC: 2.00469 (Simulation time: 0 hr 0 min 7 sec) 
Heartbeat CPU  0 instructions:    6000001 cycles:    2995934 heartbeat IPC: 1.99291 cumulative IPC: 2.00271 (Simulation time: 0 hr 0 min 9 sec) 
Heartbeat CPU  0 instructions:    7000000 cycles:    3482765 heartbeat IPC: 2.05410 cumulative IPC: 2.00990 (Simulation time: 0 hr 0 min 10 sec) 
Heartbeat CPU  0 instructions:    8000000 cycles:    3984505 heartbeat IPC: 1.99306 cumulative IPC: 2.00778 (Simulation time: 0 hr 0 min 11 sec) 
Heartbeat CPU  0 instructions:    9000001 cycles:    4485466 heartbeat IPC: 1.99617 cumulative IPC: 2.00648 (Simulation time: 0 hr 0 min 13 sec) 
Heartbeat CPU  0 instructions:   10000000 cycles:    4987164 heartbeat IPC: 1.99323 cumulative IPC: 2.00515 (Simulation time: 0 hr 0 min 14 sec) 
Heartbeat CPU  0 instructions:   11000001 cycles:    5481040 heartbeat IPC: 2.02480 cumulative IPC: 2.00692 (Simulation time: 0 hr 0 min 15 sec) 
Heartbeat CPU  0 instructions:   12000000 cycles:    5975784 heartbeat IPC: 2.02125 cumulative IPC: 2.00810 (Simulation time: 0 hr 0 min 17 sec) 
Heartbeat CPU  0 instructions:   13000003 cycles:    6477434 heartbeat IPC: 1.99343 cumulative IPC: 2.00697 (Simulation time: 0 hr 0 min 18 sec) 
Heartbeat CPU  0 instructions:   14000001 cycles:    6978821 heartbeat IPC: 1.99446 cumulative IPC: 2.00607 (Simulation time: 0 hr 0 min 19 sec) 
Heartbeat CPU  0 instructions:   15000003 cycles:    7480172 heartbeat IPC: 1.99461 cumulative IPC: 2.00530 (Simulation time: 0 hr 0 min 21 sec) 
Heartbeat CPU  0 instructions:   16000000 cycles:    7967344 heartbeat IPC: 2.05266 cumulative IPC: 2.00820 (Simulation time: 0 hr 0 min 22 sec) 
Heartbeat CPU  0 instructions:   17000001 cycles:    8469077 heartbeat IPC: 1.99309 cumulative IPC: 2.00730 (Simulation time: 0 hr 0 min 23 sec) 
Heartbeat CPU  0 instructions:   18000001 cycles:    8970416 heartbeat IPC: 1.99466 cumulative IPC: 2.00660 (Simulation time: 0 hr 0 min 25 sec) 
Heartbeat CPU  0 instructions:   19000003 cycles:    9471612 heartbeat IPC: 1.99523 cumulative IPC: 2.00599 (Simulation time: 0 hr 0 min 26 sec) 
Heartbeat CPU  0 instructions:   20000000 cycles:    9968176 heartbeat IPC: 2.01383 cumulative IPC: 2.00639 (Simulation time: 0 hr 0 min 27 sec) 
Heartbeat CPU  0 instructions:   21000001 cycles:   10460159 heartbeat IPC: 2.03259 cumulative IPC: 2.00762 (Simulation time: 0 hr 0 min 29 sec) 
Heartbeat CPU  0 instructions:   22000003 cycles:   10961995 heartbeat IPC: 1.99269 cumulative IPC: 2.00693 (Simulation time: 0 hr 0 min 30 sec) 
Heartbeat CPU  0 instructions:   23000001 cycles:   11464133 heartbeat IPC: 1.99148 cumulative IPC: 2.00626 (Simulation time: 0 hr 0 min 31 sec) 
Heartbeat CPU  0 instructions:   24000000 cycles:   11965651 heartbeat IPC: 1.99394 cumulative IPC: 2.00574 (Simulation time: 0 hr 0 min 33 sec) 
Heartbeat CPU  0 instructions:   25000003 cycles:   12452177 heartbeat IPC: 2.05539 cumulative IPC: 2.00768 (Simulation time: 0 hr 0 min 34 sec) 
Heartbeat CPU  0 instructions:   26000001 cycles:   12954017 heartbeat IPC: 1.99266 cumulative IPC: 2.00710 (Simulation time: 0 hr 0 min 35 sec) 
Heartbeat CPU  0 instructions:   27000003 cycles:   13456014 heartbeat IPC: 1.99205 cumulative IPC: 2.00654 (Simulation time: 0 hr 0 min 37 sec) 
Heartbeat CPU  0 instructions:   28000000 cycles:   13957885 heartbeat IPC: 1.99254 cumulative IPC: 2.00603 (Simulation time: 0 hr 0 min 38 sec) 
Heartbeat CPU  0 instructions:   29000002 cycles:   14455523 heartbeat IPC: 2.00950 cumulative IPC: 2.00615 (Simulation time: 0 hr 0 min 40 sec) 
Heartbeat CPU  0 instructions:   30000000 cycles:   14945878 heartbeat IPC: 2.03933 cumulative IPC: 2.00724 (Simulation time: 0 hr 0 min 41 sec) 
Heartbeat CPU  0 instructions:   31000002 cycles:   15447412 heartbeat IPC: 1.99389 cumulative IPC: 2.00681 (Simulation time: 0 hr 0 min 42 sec) 
Heartbeat CPU  0 instructions:   32000000 cycles:   15948859 heartbeat IPC: 1.99422 cumulative IPC: 2.00641 (Simulation time: 0 hr 0 min 44 sec) 
Heartbeat CPU  0 instructions:   33000001 cycles:   16450841 heartbeat IPC: 1.99211 cumulative IPC: 2.00598 (Simulation time: 0 hr 0 min 45 sec) 
Heartbeat CPU  0 instructions:   34000003 cycles:   16939605 heartbeat IPC: 2.04598 cumulative IPC: 2.00713 (Simulation time: 0 hr 0 min 46 sec) 
Heartbeat CPU  0 instructions:   35000000 cycles:   17438885 heartbeat IPC: 2.00288 cumulative IPC: 2.00701 (Simulation time: 0 hr 0 min 48 sec) 
Heartbeat CPU  0 instructions:   36000000 cycles:   17940158 heartbeat IPC: 1.99492 cumulative IPC: 2.00667 (Simulation time: 0 hr 0 min 49 sec) 
Heartbeat CPU  0 instructions:   37000003 cycles:   18441881 heartbeat IPC: 1.99314 cumulative IPC: 2.00630 (Simulation time: 0 hr 0 min 50 sec) 
Heartbeat CPU  0 instructions:   38000003 cycles:   18942685 heartbeat IPC: 1.99679 cumulative IPC: 2.00605 (Simulation time: 0 hr 0 min 52 sec) 
Heartbeat CPU  0 instructions:   39000003 cycles:   19430229 heartbeat IPC: 2.05110 cumulative IPC: 2.00718 (Simulation time: 0 hr 0 min 53 sec) 
Heartbeat CPU  0 instructions:   40000000 cycles:   19931327 heartbeat IPC: 1.99561 cumulative IPC: 2.00689 (Simulation time: 0 hr 0 min 54 sec) 
Heartbeat CPU  0 instructions:   41000001 cycles:   20433155 heartbeat IPC: 1.99272 cumulative IPC: 2.00654 (Simulation time: 0 hr 0 min 56 sec) 
Heartbeat CPU  0 instructions:   42000002 cycles:   20935062 heartbeat IPC: 1.99240 cumulative IPC: 2.00620 (Simulation time: 0 hr 0 min 57 sec) 
Heartbeat CPU  0 instructions:   43000003 cycles:   21426547 heartbeat IPC: 2.03465 cumulative IPC: 2.00686 (Simulation time: 0 hr 0 min 59 sec) 
Heartbeat CPU  0 instructions:   44000000 cycles:   21923446 heartbeat IPC: 2.01248 cumulative IPC: 2.00698 (Simulation time: 0 hr 1 min 0 sec) 
Heartbeat CPU  0 instructions:   45000001 cycles:   22425424 heartbeat IPC: 1.99212 cumulative IPC: 2.00665 (Simulation time: 0 hr 1 min 1 sec) 
Heartbeat CPU  0 instructions:   46000000 cycles:   22926834 heartbeat IPC: 1.99437 cumulative IPC: 2.00638 (Simulation time: 0 hr 1 min 3 sec) 
Heartbeat CPU  0 instructions:   47000002 cycles:   23428672 heartbeat IPC: 1.99268 cumulative IPC: 2.00609 (Simulation time: 0 hr 1 min 4 sec) 
Heartbeat CPU  0 instructions:   48000000 cycles:   23915300 heartbeat IPC: 2.05495 cumulative IPC: 2.00708 (Simulation time: 0 hr 1 min 5 sec) 
Heartbeat CPU  0 instructions:   49000002 cycles:   24417170 heartbeat IPC: 1.99255 cumulative IPC: 2.00678 (Simulation time: 0 hr 1 min 7 sec) 
Heartbeat CPU  0 instructions:   50000003 cycles:   24918525 heartbeat IPC: 1.99460 cumulative IPC: 2.00654 (Simulation time: 0 hr 1 min 8 sec) 
Heartbeat CPU  0 instructions:   51000003 cycles:   25419828 heartbeat IPC: 1.99480 cumulative IPC: 2.00631 (Simulation time: 0 hr 1 min 9 sec) 
Heartbeat CPU  0 instructions:   52000000 cycles:   25913338 heartbeat IPC: 2.02630 cumulative IPC: 2.00669 (Simulation time: 0 hr 1 min 11 sec) 
Heartbeat CPU  0 instructions:   53000001 cycles:   26408412 heartbeat IPC: 2.01990 cumulative IPC: 2.00694 (Simulation time: 0 hr 1 min 12 sec) 
Heartbeat CPU  0 instructions:   54000003 cycles:   26910083 heartbeat IPC: 1.99334 cumulative IPC: 2.00668 (Simulation time: 0 hr 1 min 13 sec) 
Heartbeat CPU  0 instructions:   55000003 cycles:   27411619 heartbeat IPC: 1.99387 cumulative IPC: 2.00645 (Simulation time: 0 hr 1 min 15 sec) 
Heartbeat CPU  0 instructions:   56000000 cycles:   27912826 heartbeat IPC: 1.99518 cumulative IPC: 2.00625 (Simulation time: 0 hr 1 min 16 sec) 
Heartbeat CPU  0 instructions:   57000002 cycles:   28399816 heartbeat IPC: 2.05343 cumulative IPC: 2.00706 (Simulation time: 0 hr 1 min 17 sec) 
Heartbeat CPU  0 instructions:   58000003 cycles:   28901348 heartbeat IPC: 1.99389 cumulative IPC: 2.00683 (Simulation time: 0 hr 1 min 19 sec) 
Heartbeat CPU  0 instructions:   59000001 cycles:   29402982 heartbeat IPC: 1.99348 cumulative IPC: 2.00660 (Simulation time: 0 hr 1 min 20 sec) 
Heartbeat CPU  0 instructions:   60000000 cycles:   29904136 heartbeat IPC: 1.99539 cumulative IPC: 2.00641 (Simulation time: 0 hr 1 min 22 sec) 
Heartbeat CPU  0 instructions:   61000000 cycles:   30400158 heartbeat IPC: 2.01604 cumulative IPC: 2.00657 (Simulation time: 0 hr 1 min 23 sec) 
Heartbeat CPU  0 instructions:   62000001 cycles:   30892473 heartbeat IPC: 2.03122 cumulative IPC: 2.00696 (Simulation time: 0 hr 1 min 24 sec) 
Heartbeat CPU  0 instructions:   63000001 cycles:   31394270 heartbeat IPC: 1.99284 cumulative IPC: 2.00674 (Simulation time: 0 hr 1 min 26 sec) 
Heartbeat CPU  0 instructions:   64000000 cycles:   31896345 heartbeat IPC: 1.99173 cumulative IPC: 2.00650 (Simulation time: 0 hr 1 min 27 sec) 
Heartbeat CPU  0 instructions:   65000000 cycles:   32398059 heartbeat IPC: 1.99317 cumulative IPC: 2.00629 (Simulation time: 0 hr 1 min 28 sec) 
Heartbeat CPU  0 instructions:   66000003 cycles:   32884288 heartbeat IPC: 2.05665 cumulative IPC: 2.00704 (Simulation time: 0 hr 1 min 30 sec) 
Heartbeat CPU  0 instructions:   67000000 cycles:   33386108 heartbeat IPC: 1.99274 cumulative IPC: 2.00682 (Simulation time: 0 hr 1 min 31 sec) 
Heartbeat CPU  0 instructions:   68000000 cycles:   33887888 heartbeat IPC: 1.99291 cumulative IPC: 2.00662 (Simulation time: 0 hr 1 min 33 sec) 
Heartbeat CPU  0 instructions:   69000001 cycles:   34389945 heartbeat IPC: 1.99181 cumulative IPC: 2.00640 (Simulation time: 0 hr 1 min 34 sec) 
Heartbeat CPU  0 instructions:   70000000 cycles:   34887265 heartbeat IPC: 2.01078 cumulative IPC: 2.00646 (Simulation time: 0 hr 1 min 35 sec) 
Heartbeat CPU  0 instructions:   71000001 cycles:   35377766 heartbeat IPC: 2.03873 cumulative IPC: 2.00691 (Simulation time: 0 hr 1 min 37 sec) 
Heartbeat CPU  0 instructions:   72000000 cycles:   35879655 heartbeat IPC: 1.99247 cumulative IPC: 2.00671 (Simulation time: 0 hr 1 min 38 sec) 
Heartbeat CPU  0 instructions:   73000002 cycles:   36380761 heartbeat IPC: 1.99559 cumulative IPC: 2.00656 (Simulation time: 0 hr 1 min 39 sec) 
Heartbeat CPU  0 instructions:   74000003 cycles:   36882556 heartbeat IPC: 1.99285 cumulative IPC: 2.00637 (Simulation time: 0 hr 1 min 41 sec) 
Heartbeat CPU  0 instructions:   75000001 cycles:   37371310 heartbeat IPC: 2.04602 cumulative IPC: 2.00689 (Simulation time: 0 hr 1 min 42 sec) 
Heartbeat CPU  0 instructions:   76000000 cycles:   37870696 heartbeat IPC: 2.00246 cumulative IPC: 2.00683 (Simulation time: 0 hr 1 min 43 sec) 
Heartbeat CPU  0 instructions:   77000000 cycles:   38372459 heartbeat IPC: 1.99297 cumulative IPC: 2.00665 (Simulation time: 0 hr 1 min 45 sec) 
Heartbeat CPU  0 instructions:   78000003 cycles:   38873948 heartbeat IPC: 1.99407 cumulative IPC: 2.00649 (Simulation time: 0 hr 1 min 46 sec) 
Heartbeat CPU  0 instructions:   79000001 cycles:   39374328 heartbeat IPC: 1.99848 cumulative IPC: 2.00638 (Simulation time: 0 hr 1 min 48 sec) 
Heartbeat CPU  0 instructions:   80000000 cycles:   39862870 heartbeat IPC: 2.04690 cumulative IPC: 2.00688 (Simulation time: 0 hr 1 min 49 sec) 
Heartbeat CPU  0 instructions:   81000003 cycles:   40363876 heartbeat IPC: 1.99599 cumulative IPC: 2.00674 (Simulation time: 0 hr 1 min 50 sec) 
Heartbeat CPU  0 instructions:   82000003 cycles:   40865427 heartbeat IPC: 1.99382 cumulative IPC: 2.00659 (Simulation time: 0 hr 1 min 52 sec) 
Heartbeat CPU  0 instructions:   83000001 cycles:   41367089 heartbeat IPC: 1.99337 cumulative IPC: 2.00643 (Simulation time: 0 hr 1 min 53 sec) 
Heartbeat CPU  0 instructions:   84000000 cycles:   41858332 heartbeat IPC: 2.03565 cumulative IPC: 2.00677 (Simulation time: 0 hr 1 min 54 sec) 
Heartbeat CPU  0 instructions:   85000002 cycles:   42355823 heartbeat IPC: 2.01009 cumulative IPC: 2.00681 (Simulation time: 0 hr 1 min 56 sec) 
Heartbeat CPU  0 instructions:   86000002 cycles:   42857730 heartbeat IPC: 1.99240 cumulative IPC: 2.00664 (Simulation time: 0 hr 1 min 57 sec) 
Heartbeat CPU  0 instructions:   87000002 cycles:   43359267 heartbeat IPC: 1.99387 cumulative IPC: 2.00649 (Simulation time: 0 hr 1 min 58 sec) 
Heartbeat CPU  0 instructions:   88000000 cycles:   43861163 heartbeat IPC: 1.99244 cumulative IPC: 2.00633 (Simulation time: 0 hr 2 min 0 sec) 
Heartbeat CPU  0 instructions:   89000003 cycles:   44347864 heartbeat IPC: 2.05466 cumulative IPC: 2.00686 (Simulation time: 0 hr 2 min 1 sec) 
Heartbeat CPU  0 instructions:   90000002 cycles:   44849913 heartbeat IPC: 1.99184 cumulative IPC: 2.00669 (Simulation time: 0 hr 2 min 2 sec) 
Heartbeat CPU  0 instructions:   91000000 cycles:   45351310 heartbeat IPC: 1.99442 cumulative IPC: 2.00656 (Simulation time: 0 hr 2 min 4 sec) 
Heartbeat CPU  0 instructions:   92000000 cycles:   45852976 heartbeat IPC: 1.99336 cumulative IPC: 2.00641 (Simulation time: 0 hr 2 min 5 sec) 
Heartbeat CPU  0 instructions:   93000002 cycles:   46345804 heartbeat IPC: 2.02911 cumulative IPC: 2.00665 (Simulation time: 0 hr 2 min 7 sec) 
Heartbeat CPU  0 instructions:   94000003 cycles:   46841576 heartbeat IPC: 2.01706 cumulative IPC: 2.00676 (Simulation time: 0 hr 2 min 8 sec) 
Heartbeat CPU  0 instructions:   95000003 cycles:   47343164 heartbeat IPC: 1.99367 cumulative IPC: 2.00663 (Simulation time: 0 hr 2 min 9 sec) 
Heartbeat CPU  0 instructions:   96000000 cycles:   47844785 heartbeat IPC: 1.99353 cumulative IPC: 2.00649 (Simulation time: 0 hr 2 min 11 sec) 
Heartbeat CPU  0 instructions:   97000000 cycles:   48346135 heartbeat IPC: 1.99461 cumulative IPC: 2.00637 (Simulation time: 0 hr 2 min 12 sec) 
Heartbeat CPU  0 instructions:   98000000 cycles:   48832828 heartbeat IPC: 2.05468 cumulative IPC: 2.00685 (Simulation time: 0 hr 2 min 13 sec) 
Heartbeat CPU  0 instructions:   99000002 cycles:   49334462 heartbeat IPC: 1.99349 cumulative IPC: 2.00671 (Simulation time: 0 hr 2 min 15 sec) 
Heartbeat CPU  0 instructions:  100000000 cycles:   49836027 heartbeat IPC: 1.99376 cumulative IPC: 2.00658 (Simulation time: 0 hr 2 min 16 sec) 

Warmup complete CPU  0 instructions:  100000003 cycles:   49836028 (Simulation time: 0 hr 2 min 16 sec) 

Heartbeat CPU  0 instructions:  101000001 cycles:   50662053 heartbeat IPC: 1.21062 cumulative IPC: 1.21061 (Simulation time: 0 hr 2 min 18 sec) 
Heartbeat CPU  0 instructions:  102000002 cycles:   51495605 heartbeat IPC: 1.19969 cumulative IPC: 1.20513 (Simulation time: 0 hr 2 min 19 sec) 
Heartbeat CPU  0 instructions:  103000001 cycles:   52339085 heartbeat IPC: 1.18556 cumulative IPC: 1.19853 (Simulation time: 0 hr 2 min 21 sec) 
Heartbeat CPU  0 instructions:  104000000 cycles:   53176942 heartbeat IPC: 1.19352 cumulative IPC: 1.19728 (Simulation time: 0 hr 2 min 22 sec) 
Heartbeat CPU  0 instructions:  105000003 cycles:   53995322 heartbeat IPC: 1.22193 cumulative IPC: 1.20213 (Simulation time: 0 hr 2 min 24 sec) 
Heartbeat CPU  0 instructions:  106000001 cycles:   54818573 heartbeat IPC: 1.21469 cumulative IPC: 1.20420 (Simulation time: 0 hr 2 min 25 sec) 
Heartbeat CPU  0 instructions:  107000002 cycles:   55660724 heartbeat IPC: 1.18744 cumulative IPC: 1.20178 (Simulation time: 0 hr 2 min 27 sec) 
Heartbeat CPU  0 instructions:  108000000 cycles:   56495437 heartbeat IPC: 1.19801 cumulative IPC: 1.20131 (Simulation time: 0 hr 2 min 28 sec) 
Heartbeat CPU  0 instructions:  109000003 cycles:   57331600 heartbeat IPC: 1.19594 cumulative IPC: 1.20071 (Simulation time: 0 hr 2 min 30 sec) 
Heartbeat CPU  0 instructions:  110000001 cycles:   58155665 heartbeat IPC: 1.21349 cumulative IPC: 1.20198 (Simulation time: 0 hr 2 min 31 sec) 
Heartbeat CPU  0 instructions:  111000003 cycles:   58976228 heartbeat IPC: 1.21868 cumulative IPC: 1.20347 (Simulation time: 0 hr 2 min 33 sec) 
Heartbeat CPU  0 instructions:  112000000 cycles:   59815981 heartbeat IPC: 1.19082 cumulative IPC: 1.20241 (Simulation time: 0 hr 2 min 34 sec) 
Heartbeat CPU  0 instructions:  113000002 cycles:   60650751 heartbeat IPC: 1.19794 cumulative IPC: 1.20206 (Simulation time: 0 hr 2 min 36 sec) 
Heartbeat CPU  0 instructions:  114000002 cycles:   61485626 heartbeat IPC: 1.19778 cumulative IPC: 1.20176 (Simulation time: 0 hr 2 min 37 sec) 
Heartbeat CPU  0 instructions:  115000000 cycles:   62317278 heartbeat IPC: 1.20242 cumulative IPC: 1.20180 (Simulation time: 0 hr 2 min 39 sec) 
Heartbeat CPU  0 instructions:  116000000 cycles:   63147358 heartbeat IPC: 1.20470 cumulative IPC: 1.20198 (Simulation time: 0 hr 2 min 40 sec) 
Heartbeat CPU  0 instructions:  117000002 cycles:   63976596 heartbeat IPC: 1.20593 cumulative IPC: 1.20221 (Simulation time: 0 hr 2 min 42 sec) 
Heartbeat CPU  0 instructions:  118000001 cycles:   64807798 heartbeat IPC: 1.20308 cumulative IPC: 1.20226 (Simulation time: 0 hr 2 min 43 sec) 
Heartbeat CPU  0 instructions:  119000002 cycles:   65643257 heartbeat IPC: 1.19695 cumulative IPC: 1.20198 (Simulation time: 0 hr 2 min 45 sec) 
Heartbeat CPU  0 instructions:  120000000 cycles:   66479968 heartbeat IPC: 1.19515 cumulative IPC: 1.20164 (Simulation time: 0 hr 2 min 46 sec) 
Heartbeat CPU  0 instructions:  121000001 cycles:   67307910 heartbeat IPC: 1.20782 cumulative IPC: 1.20193 (Simulation time: 0 hr 2 min 48 sec) 
Heartbeat CPU  0 instructions:  122000002 cycles:   68134953 heartbeat IPC: 1.20913 cumulative IPC: 1.20226 (Simulation time: 0 hr 2 min 49 sec) 
Heartbeat CPU  0 instructions:  123000000 cycles:   68966465 heartbeat IPC: 1.20263 cumulative IPC: 1.20227 (Simulation time: 0 hr 2 min 51 sec) 
Heartbeat CPU  0 instructions:  124000000 cycles:   69804485 heartbeat IPC: 1.19329 cumulative IPC: 1.20190 (Simulation time: 0 hr 2 min 52 sec) 
Heartbeat CPU  0 instructions:  125000000 cycles:   70651419 heartbeat IPC: 1.18073 cumulative IPC: 1.20103 (Simulation time: 0 hr 2 min 54 sec) 
Heartbeat CPU  0 instructions:  126000000 cycles:   71469956 heartbeat IPC: 1.22169 cumulative IPC: 1.20182 (Simulation time: 0 hr 2 min 55 sec) 
Heartbeat CPU  0 instructions:  127000000 cycles:   72295728 heartbeat IPC: 1.21099 cumulative IPC: 1.20215 (Simulation time: 0 hr 2 min 57 sec) 
Heartbeat CPU  0 instructions:  128000000 cycles:   73123410 heartbeat IPC: 1.20819 cumulative IPC: 1.20237 (Simulation time: 0 hr 2 min 58 sec) 
Heartbeat CPU  0 instructions:  129000002 cycles:   73958890 heartbeat IPC: 1.19692 cumulative IPC: 1.20218 (Simulation time: 0 hr 3 min 0 sec) 
Heartbeat CPU  0 instructions:  130000002 cycles:   74811310 heartbeat IPC: 1.17313 cumulative IPC: 1.20119 (Simulation time: 0 hr 3 min 1 sec) 
Heartbeat CPU  0 instructions:  131000002 cycles:   75630690 heartbeat IPC: 1.22043 cumulative IPC: 1.20180 (Simulation time: 0 hr 3 min 3 sec) 
Heartbeat CPU  0 instructions:  132000000 cycles:   76452651 heartbeat IPC: 1.21660 cumulative IPC: 1.20226 (Simulation time: 0 hr 3 min 5 sec) 
Heartbeat CPU  0 instructions:  133000000 cycles:   77278782 heartbeat IPC: 1.21046 cumulative IPC: 1.20250 (Simulation time: 0 hr 3 min 6 sec) 
Heartbeat CPU  0 instructions:  134000000 cycles:   78118770 heartbeat IPC: 1.19049 cumulative IPC: 1.20215 (Simulation time: 0 hr 3 min 8 sec) 
Heartbeat CPU  0 instructions:  135000002 cycles:   78965534 heartbeat IPC: 1.18097 cumulative IPC: 1.20153 (Simulation time: 0 hr 3 min 9 sec) 
Heartbeat CPU  0 instructions:  136000000 cycles:   79786209 heartbeat IPC: 1.21851 cumulative IPC: 1.20200 (Simulation time: 0 hr 3 min 11 sec) 
Heartbeat CPU  0 instructions:  137000001 cycles:   80607960 heartbeat IPC: 1.21691 cumulative IPC: 1.20239 (Simulation time: 0 hr 3 min 12 sec) 
Heartbeat CPU  0 instructions:  138000003 cycles:   81434124 heartbeat IPC: 1.21042 cumulative IPC: 1.20260 (Simulation time: 0 hr 3 min 14 sec) 
Heartbeat CPU  0 instructions:  139000003 cycles:   82275047 heartbeat IPC: 1.18917 cumulative IPC: 1.20226 (Simulation time: 0 hr 3 min 15 sec) 
Heartbeat CPU  0 instructions:  140000000 cycles:   83116120 heartbeat IPC: 1.18895 cumulative IPC: 1.20192 (Simulation time: 0 hr 3 min 17 sec) 
Heartbeat CPU  0 instructions:  141000003 cycles:   83937917 heartbeat IPC: 1.21685 cumulative IPC: 1.20228 (Simulation time: 0 hr 3 min 18 sec) 
Heartbeat CPU  0 instructions:  142000000 cycles:   84756820 heartbeat IPC: 1.22114 cumulative IPC: 1.20272 (Simulation time: 0 hr 3 min 20 sec) 
Heartbeat CPU  0 instructions:  143000000 cycles:   85584913 heartbeat IPC: 1.20759 cumulative IPC: 1.20283 (Simulation time: 0 hr 3 min 21 sec) 
Heartbeat CPU  0 instructions:  144000000 cycles:   86420884 heartbeat IPC: 1.19621 cumulative IPC: 1.20268 (Simulation time: 0 hr 3 min 23 sec) 
Heartbeat CPU  0 instructions:  145000002 cycles:   87264767 heartbeat IPC: 1.18500 cumulative IPC: 1.20228 (Simulation time: 0 hr 3 min 24 sec) 
Heartbeat CPU  0 instructions:  146000002 cycles:   88098025 heartbeat IPC: 1.20011 cumulative IPC: 1.20224 (Simulation time: 0 hr 3 min 26 sec) 
Heartbeat CPU  0 instructions:  147000002 cycles:   88973857 heartbeat IPC: 1.14177 cumulative IPC: 1.20088 (Simulation time: 0 hr 3 min 27 sec) 
Heartbeat CPU  0 instructions:  148000000 cycles:   90150061 heartbeat IPC: 0.85019 cumulative IPC: 1.19065 (Simulation time: 0 hr 3 min 29 sec) 
Heartbeat CPU  0 instructions:  149000002 cycles:   91321381 heartbeat IPC: 0.85374 cumulative IPC: 1.18114 (Simulation time: 0 hr 3 min 30 sec) 
Heartbeat CPU  0 instructions:  150000002 cycles:   92493542 heartbeat IPC: 0.85313 cumulative IPC: 1.17213 (Simulation time: 0 hr 3 min 32 sec) 
Heartbeat CPU  0 instructions:  151000000 cycles:   93661485 heartbeat IPC: 0.85620 cumulative IPC: 1.16371 (Simulation time: 0 hr 3 min 34 sec) 
Heartbeat CPU  0 instructions:  152000000 cycles:   94833855 heartbeat IPC: 0.85297 cumulative IPC: 1.15561 (Simulation time: 0 hr 3 min 35 sec) 
Heartbeat CPU  0 instructions:  153000003 cycles:   96014977 heartbeat IPC: 0.84666 cumulative IPC: 1.14771 (Simulation time: 0 hr 3 min 37 sec) 
Heartbeat CPU  0 instructions:  154000002 cycles:   97185686 heartbeat IPC: 0.85418 cumulative IPC: 1.14045 (Simulation time: 0 hr 3 min 39 sec) 
Heartbeat CPU  0 instructions:  155000003 cycles:   98352448 heartbeat IPC: 0.85707 cumulative IPC: 1.13364 (Simulation time: 0 hr 3 min 40 sec) 
Heartbeat CPU  0 instructions:  156000000 cycles:   99523515 heartbeat IPC: 0.85392 cumulative IPC: 1.12704 (Simulation time: 0 hr 3 min 42 sec) 
Heartbeat CPU  0 instructions:  157000003 cycles:  100697454 heartbeat IPC: 0.85184 cumulative IPC: 1.12069 (Simulation time: 0 hr 3 min 44 sec) 
Heartbeat CPU  0 instructions:  158000000 cycles:  101872517 heartbeat IPC: 0.85102 cumulative IPC: 1.11460 (Simulation time: 0 hr 3 min 45 sec) 
Heartbeat CPU  0 instructions:  159000003 cycles:  103043654 heartbeat IPC: 0.85387 cumulative IPC: 1.10886 (Simulation time: 0 hr 3 min 47 sec) 
Heartbeat CPU  0 instructions:  160000000 cycles:  104214697 heartbeat IPC: 0.85394 cumulative IPC: 1.10337 (Simulation time: 0 hr 3 min 49 sec) 
Heartbeat CPU  0 instructions:  161000000 cycles:  105390624 heartbeat IPC: 0.85039 cumulative IPC: 1.09802 (Simulation time: 0 hr 3 min 50 sec) 
Heartbeat CPU  0 instructions:  162000000 cycles:  106564711 heartbeat IPC: 0.85173 cumulative IPC: 1.09292 (Simulation time: 0 hr 3 min 52 sec) 
Heartbeat CPU  0 instructions:  163000002 cycles:  107752336 heartbeat IPC: 0.84202 cumulative IPC: 1.08778 (Simulation time: 0 hr 3 min 54 sec) 
Heartbeat CPU  0 instructions:  164000000 cycles:  108920524 heartbeat IPC: 0.85602 cumulative IPC: 1.08319 (Simulation time: 0 hr 3 min 55 sec) 
Heartbeat CPU  0 instructions:  165000003 cycles:  110097713 heartbeat IPC: 0.84948 cumulative IPC: 1.07863 (Simulation time: 0 hr 3 min 57 sec) 
Heartbeat CPU  0 instructions:  166000001 cycles:  111277043 heartbeat IPC: 0.84794 cumulative IPC: 1.07420 (Simulation time: 0 hr 3 min 59 sec) 
Heartbeat CPU  0 instructions:  167000001 cycles:  112445848 heartbeat IPC: 0.85557 cumulative IPC: 1.07012 (Simulation time: 0 hr 4 min 0 sec) 
Heartbeat CPU  0 instructions:  168000000 cycles:  113619578 heartbeat IPC: 0.85198 cumulative IPC: 1.06611 (Simulation time: 0 hr 4 min 2 sec) 
Heartbeat CPU  0 instructions:  169000002 cycles:  114795849 heartbeat IPC: 0.85015 cumulative IPC: 1.06220 (Simulation time: 0 hr 4 min 4 sec) 
Heartbeat CPU  0 instructions:  170000002 cycles:  115964276 heartbeat IPC: 0.85585 cumulative IPC: 1.05855 (Simulation time: 0 hr 4 min 5 sec) 
Heartbeat CPU  0 instructions:  171000002 cycles:  117138938 heartbeat IPC: 0.85131 cumulative IPC: 1.05493 (Simulation time: 0 hr 4 min 7 sec) 
Heartbeat CPU  0 instructions:  172000000 cycles:  118310982 heartbeat IPC: 0.85321 cumulative IPC: 1.05148 (Simulation time: 0 hr 4 min 9 sec) 
Heartbeat CPU  0 instructions:  173000002 cycles:  119488419 heartbeat IPC: 0.84930 cumulative IPC: 1.04806 (Simulation time: 0 hr 4 min 10 sec) 
Heartbeat CPU  0 instructions:  174000003 cycles:  120667699 heartbeat IPC: 0.84798 cumulative IPC: 1.04473 (Simulation time: 0 hr 4 min 12 sec) 
Heartbeat CPU  0 instructions:  175000002 cycles:  121851178 heartbeat IPC: 0.84497 cumulative IPC: 1.04145 (Simulation time: 0 hr 4 min 14 sec) 
Heartbeat CPU  0 instructions:  176000000 cycles:  123030691 heartbeat IPC: 0.84781 cumulative IPC: 1.03833 (Simulation time: 0 hr 4 min 15 sec) 
Heartbeat CPU  0 instructions:  177000003 cycles:  124203990 heartbeat IPC: 0.85230 cumulative IPC: 1.03539 (Simulation time: 0 hr 4 min 17 sec) 
Heartbeat CPU  0 instructions:  178000000 cycles:  125390007 heartbeat IPC: 0.84316 cumulative IPC: 1.03237 (Simulation time: 0 hr 4 min 19 sec) 
Heartbeat CPU  0 instructions:  179000002 cycles:  126569217 heartbeat IPC: 0.84803 cumulative IPC: 1.02954 (Simulation time: 0 hr 4 min 20 sec) 
Heartbeat CPU  0 instructions:  180000000 cycles:  127751623 heartbeat IPC: 0.84573 cumulative IPC: 1.02675 (Simulation time: 0 hr 4 min 22 sec) 
Heartbeat CPU  0 instructions:  181000003 cycles:  128927291 heartbeat IPC: 0.85058 cumulative IPC: 1.02413 (Simulation time: 0 hr 4 min 24 sec) 
Heartbeat CPU  0 instructions:  182000002 cycles:  130102483 heartbeat IPC: 0.85092 cumulative IPC: 1.02160 (Simulation time: 0 hr 4 min 25 sec) 
Heartbeat CPU  0 instructions:  183000000 cycles:  131273180 heartbeat IPC: 0.85419 cumulative IPC: 1.01919 (Simulation time: 0 hr 4 min 27 sec) 
Heartbeat CPU  0 instructions:  184000000 cycles:  132448282 heartbeat IPC: 0.85099 cumulative IPC: 1.01680 (Simulation time: 0 hr 4 min 29 sec) 
Heartbeat CPU  0 instructions:  185000003 cycles:  133614701 heartbeat IPC: 0.85733 cumulative IPC: 1.01458 (Simulation time: 0 hr 4 min 30 sec) 
Heartbeat CPU  0 instructions:  186000001 cycles:  134795714 heartbeat IPC: 0.84673 cumulative IPC: 1.01224 (Simulation time: 0 hr 4 min 32 sec) 
Heartbeat CPU  0 instructions:  187000002 cycles:  135977607 heartbeat IPC: 0.84610 cumulative IPC: 1.00997 (Simulation time: 0 hr 4 min 34 sec) 
Heartbeat CPU  0 instructions:  188000000 cycles:  137150496 heartbeat IPC: 0.85259 cumulative IPC: 1.00785 (Simulation time: 0 hr 4 min 35 sec) 
Heartbeat CPU  0 instructions:  189000001 cycles:  138325718 heartbeat IPC: 0.85090 cumulative IPC: 1.00577 (Simulation time: 0 hr 4 min 37 sec) 
Heartbeat CPU  0 instructions:  190000003 cycles:  139501245 heartbeat IPC: 0.85068 cumulative IPC: 1.00373 (Simulation time: 0 hr 4 min 39 sec) 
Heartbeat CPU  0 instructions:  191000002 cycles:  140674669 heartbeat IPC: 0.85221 cumulative IPC: 1.00178 (Simulation time: 0 hr 4 min 40 sec) 
Heartbeat CPU  0 instructions:  192000000 cycles:  141832615 heartbeat IPC: 0.86360 cumulative IPC: 1.00004 (Simulation time: 0 hr 4 min 42 sec) 
Heartbeat CPU  0 instructions:  193000003 cycles:  142733951 heartbeat IPC: 1.10947 cumulative IPC: 1.00110 (Simulation time: 0 hr 4 min 44 sec) 
Heartbeat CPU  0 instructions:  194000001 cycles:  146932752 heartbeat IPC: 0.23816 cumulative IPC: 0.96811 (Simulation time: 0 hr 4 min 47 sec) 
Heartbeat CPU  0 instructions:  195000000 cycles:  150499516 heartbeat IPC: 0.28037 cumulative IPC: 0.94374 (Simulation time: 0 hr 4 min 50 sec) 
Heartbeat CPU  0 instructions:  196000000 cycles:  151206365 heartbeat IPC: 1.41473 cumulative IPC: 0.94702 (Simulation time: 0 hr 4 min 51 sec) 
Heartbeat CPU  0 instructions:  197000000 cycles:  151913624 heartbeat IPC: 1.41391 cumulative IPC: 0.95026 (Simulation time: 0 hr 4 min 53 sec) 
Heartbeat CPU  0 instructions:  198000003 cycles:  152621995 heartbeat IPC: 1.41169 cumulative IPC: 0.95344 (Simulation time: 0 hr 4 min 54 sec) 
Heartbeat CPU  0 instructions:  199000002 cycles:  153340254 heartbeat IPC: 1.39225 cumulative IPC: 0.95648 (Simulation time: 0 hr 4 min 56 sec) 
Heartbeat CPU  0 instructions:  200000000 cycles:  154050378 heartbeat IPC: 1.40820 cumulative IPC: 0.95956 (Simulation time: 0 hr 4 min 57 sec) 
Finished CPU 0 instructions: 100000000 cycles: 104214379 cumulative IPC: 0.95956 (Simulation time: 0 hr 4 min 57 sec) 

ChampSim completed all CPUs

[ROI Statistics]
Core_0_instructions 100000000
Core_0_cycles 104214379
Core_0_IPC 0.95956

Core_0_branch_prediction_accuracy 99.15344
Core_0_branch_MPKI 0.35029
Core_0_average_ROB_occupancy_at_mispredict 249.73576

Core_0_L1D_total_access 49696194
Core_0_L1D_total_hit 47719042
Core_0_L1D_total_miss 1977152
Core_0_L1D_loads 23362704
Core_0_L1D_load_hit 22801494
Core_0_L1D_load_miss 561210
Core_0_L1D_RFOs 4506283
Core_0_L1D_RFO_hit 4191450
Core_0_L1D_RFO_miss 314833
Core_0_L1D_prefetches 21827207
Core_0_L1D_prefetch_hit 20726098
Core_0_L1D_prefetch_miss 1101109
Core_0_L1D_writebacks 0
Core_0_L1D_writeback_hit 0
Core_0_L1D_writeback_miss 0
Core_0_L1D_prefetch_requested 59237770
Core_0_L1D_prefetch_issued 57163278
Core_0_L1D_prefetch_useful 1623498
Core_0_L1D_prefetch_useless 1189929
Core_0_L1D_prefetch_late 163951
Core_0_L1D_average_miss_latency 9168463.93155

Core_0_L1I_total_access 22673946
Core_0_L1I_total_hit 22673726
Core_0_L1I_total_miss 220
Core_0_L1I_loads 22673946
Core_0_L1I_load_hit 22673726
Core_0_L1I_load_miss 220
Core_0_L1I_RFOs 0
Core_0_L1I_RFO_hit 0
Core_0_L1I_RFO_miss 0
Core_0_L1I_prefetches 0
Core_0_L1I_prefetch_hit 0
Core_0_L1I_prefetch_miss 0
Core_0_L1I_writebacks 0
Core_0_L1I_writeback_hit 0
Core_0_L1I_writeback_miss 0
Core_0_L1I_prefetch_requested 0
Core_0_L1I_prefetch_issued 0
Core_0_L1I_prefetch_useful 0
Core_0_L1I_prefetch_useless 0
Core_0_L1I_prefetch_late 0
Core_0_L1I_average_miss_latency 187.40909

Core_0_L2C_total_access 3659297
Core_0_L2C_total_hit 2560994
Core_0_L2C_total_miss 1098303
Core_0_L2C_loads 399118
Core_0_L2C_load_hit 333213
Core_0_L2C_load_miss 65905
Core_0_L2C_RFOs 314683
Core_0_L2C_RFO_hit 129558
Core_0_L2C_RFO_miss 185125
Core_0_L2C_prefetches 2386555
Core_0_L2C_prefetch_hit 1539410
Core_0_L2C_prefetch_miss 847145
Core_0_L2C_writebacks 558941
Core_0_L2C_writeback_hit 558813
Core_0_L2C_writeback_miss 128
Core_0_L2C_prefetch_requested 4029481
Core_0_L2C_prefetch_issued 3970006
Core_0_L2C_prefetch_useful 162697
Core_0_L2C_prefetch_useless 1206146
Core_0_L2C_prefetch_late 2748
Core_0_L2C_average_miss_latency 178.20774

Core_0_LLC_total_access 1983382
Core_0_LLC_total_hit 939111
Core_0_LLC_total_miss 1044271
Core_0_LLC_loads 63162
Core_0_LLC_load_hit 17658
Core_0_LLC_load_miss 45504
Core_0_LLC_RFOs 185125
Core_0_LLC_RFO_hit 16472
Core_0_LLC_RFO_miss 168653
Core_0_LLC_prefetches 1328030
Core_0_LLC_prefetch_hit 508424
Core_0_LLC_prefetch_miss 819606
Core_0_LLC_writebacks 407065
Core_0_LLC_writeback_hit 396557
Core_0_LLC_writeback_miss 10508
Core_0_LLC_prefetch_requested 1333370
Core_0_LLC_prefetch_issued 1312325
Core_0_LLC_prefetch_useful 42617
Core_0_LLC_prefetch_useless 1113192
Core_0_LLC_prefetch_late 487
Core_0_LLC_average_miss_latency 268.58153

Core_0_major_page_fault 0
Core_0_minor_page_fault 15627

CPU 0 L1D next line prefetcher final stats
CPU 0 L2C next line prefetcher final stats
LLC Next Line Prefetcher Final Stats: none
Channel_0_RQ_row_buffer_hit 358977
Channel_0_RQ_row_buffer_miss 674781
Channel_0_WQ_row_buffer_hit 66402
Channel_0_WQ_row_buffer_miss 320853
Channel_0_WQ_full 0
Channel_0_dbus_congested 462142

avg_congested_cycle 9
