*************************************************
   ChampSim Multicore Out-of-Order Simulator
   Last compiled: Dec 23 2023 16:19:32
*************************************************

trace_0 ./test_trace/437.leslie3d-134B.champsimtrace.xz
CPU 0 L1D next line prefetcher
CPU 0 L2C next line prefetcher
Initialize DRRIP state
Assign rand_sets[0]: 454  LLC: 2048
rand_sets[0]: 454
Assign rand_sets[1]: 1662  LLC: 2048
rand_sets[1]: 1662
Assign rand_sets[2]: 1921  LLC: 2048
rand_sets[2]: 1921
Assign rand_sets[3]: 1131  LLC: 2048
rand_sets[3]: 1131
Assign rand_sets[4]: 331  LLC: 2048
rand_sets[4]: 331
Assign rand_sets[5]: 1531  LLC: 2048
rand_sets[5]: 1531
Assign rand_sets[6]: 482  LLC: 2048
rand_sets[6]: 482
Assign rand_sets[7]: 1275  LLC: 2048
rand_sets[7]: 1275
Assign rand_sets[8]: 1876  LLC: 2048
rand_sets[8]: 1876
Assign rand_sets[9]: 2038  LLC: 2048
rand_sets[9]: 2038
Assign rand_sets[10]: 701  LLC: 2048
rand_sets[10]: 701
Assign rand_sets[11]: 479  LLC: 2048
rand_sets[11]: 479
Assign rand_sets[12]: 892  LLC: 2048
rand_sets[12]: 892
Assign rand_sets[13]: 1820  LLC: 2048
rand_sets[13]: 1820
Assign rand_sets[14]: 1505  LLC: 2048
rand_sets[14]: 1505
Assign rand_sets[15]: 1159  LLC: 2048
rand_sets[15]: 1159
Assign rand_sets[16]: 513  LLC: 2048
rand_sets[16]: 513
Assign rand_sets[17]: 703  LLC: 2048
rand_sets[17]: 703
Assign rand_sets[18]: 561  LLC: 2048
rand_sets[18]: 561
Assign rand_sets[19]: 990  LLC: 2048
rand_sets[19]: 990
Assign rand_sets[20]: 342  LLC: 2048
rand_sets[20]: 342
Assign rand_sets[21]: 882  LLC: 2048
rand_sets[21]: 882
Assign rand_sets[22]: 15  LLC: 2048
rand_sets[22]: 15
Assign rand_sets[23]: 71  LLC: 2048
rand_sets[23]: 71
Assign rand_sets[24]: 1127  LLC: 2048
rand_sets[24]: 1127
Assign rand_sets[25]: 1382  LLC: 2048
rand_sets[25]: 1382
Assign rand_sets[26]: 647  LLC: 2048
rand_sets[26]: 647
Assign rand_sets[27]: 857  LLC: 2048
rand_sets[27]: 857
Assign rand_sets[28]: 1450  LLC: 2048
rand_sets[28]: 1450
Assign rand_sets[29]: 1160  LLC: 2048
rand_sets[29]: 1160
Assign rand_sets[30]: 1852  LLC: 2048
rand_sets[30]: 1852
Assign rand_sets[31]: 1881  LLC: 2048
rand_sets[31]: 1881
Assign rand_sets[32]: 1770  LLC: 2048
rand_sets[32]: 1770
Assign rand_sets[33]: 1622  LLC: 2048
rand_sets[33]: 1622
Assign rand_sets[34]: 275  LLC: 2048
rand_sets[34]: 275
Assign rand_sets[35]: 635  LLC: 2048
rand_sets[35]: 635
Assign rand_sets[36]: 466  LLC: 2048
rand_sets[36]: 466
Assign rand_sets[37]: 1413  LLC: 2048
rand_sets[37]: 1413
Assign rand_sets[38]: 417  LLC: 2048
rand_sets[38]: 417
Assign rand_sets[39]: 472  LLC: 2048
rand_sets[39]: 472
Assign rand_sets[40]: 1340  LLC: 2048
rand_sets[40]: 1340
Assign rand_sets[41]: 852  LLC: 2048
rand_sets[41]: 852
Assign rand_sets[42]: 1365  LLC: 2048
rand_sets[42]: 1365
Assign rand_sets[43]: 47  LLC: 2048
rand_sets[43]: 47
Assign rand_sets[44]: 823  LLC: 2048
rand_sets[44]: 823
Assign rand_sets[45]: 686  LLC: 2048
rand_sets[45]: 686
Assign rand_sets[46]: 1637  LLC: 2048
rand_sets[46]: 1637
Assign rand_sets[47]: 1115  LLC: 2048
rand_sets[47]: 1115
Assign rand_sets[48]: 986  LLC: 2048
rand_sets[48]: 986
Assign rand_sets[49]: 258  LLC: 2048
rand_sets[49]: 258
Assign rand_sets[50]: 633  LLC: 2048
rand_sets[50]: 633
Assign rand_sets[51]: 920  LLC: 2048
rand_sets[51]: 920
Assign rand_sets[52]: 204  LLC: 2048
rand_sets[52]: 204
Assign rand_sets[53]: 227  LLC: 2048
rand_sets[53]: 227
Assign rand_sets[54]: 1818  LLC: 2048
rand_sets[54]: 1818
Assign rand_sets[55]: 886  LLC: 2048
rand_sets[55]: 886
Assign rand_sets[56]: 1422  LLC: 2048
rand_sets[56]: 1422
Assign rand_sets[57]: 607  LLC: 2048
rand_sets[57]: 607
Assign rand_sets[58]: 217  LLC: 2048
rand_sets[58]: 217
Assign rand_sets[59]: 1945  LLC: 2048
rand_sets[59]: 1945
Assign rand_sets[60]: 143  LLC: 2048
rand_sets[60]: 143
Assign rand_sets[61]: 1311  LLC: 2048
rand_sets[61]: 1311
Assign rand_sets[62]: 319  LLC: 2048
rand_sets[62]: 319
Assign rand_sets[63]: 1846  LLC: 2048
rand_sets[63]: 1846
warmup_instructions 100000000
simulation_instructions 100000000
champsim_seed 218

num_cpus 1
cpu_freq 4000
dram_io_freq 2400
page_size 4096
block_size 64
max_read_per_cycle 8
max_fill_per_cycle 1
dram_channels 1
dram_ranks 1
dram_banks 8
dram_rows 65536
dram_columns 128
dram_row_size 8
dram_size 4096
dram_pages 1048576

fetch_width 6
decode_width 6
exec_width 4
lq_width 2
sq_width 2
retire_width 4
scheduler_size 128
branch_mispredict_penalty 20
rob_size 256
lq_size 72
sq_size 56
num_instr_destinations_sparc 4
num_instr_destinations 2
num_instr_sources 4

itlb_set 16
itlb_way 8
itlb_rq_size 16
itlb_wq_size 16
itlb_pq_size 0
itlb_mshr_size 8
itlb_latency 1

dtlb_set 16
dtlb_way 4
dtlb_rq_size 16
dtlb_wq_size 16
dtlb_pq_size 0
dtlb_mshr_size 8
dtlb_latency 1

stlb_set 128
stlb_way 12
stlb_rq_size 32
stlb_wq_size 32
stlb_pq_size 0
stlb_mshr_size 16
stlb_latency 8

l1i_size 32
l1i_set 64
l1i_way 8
l1i_rq_size 64
l1i_wq_size 64
l1i_pq_size 8
l1i_mshr_size 8
l1i_latency 1

l1d_size 32
l1d_set 64
l1d_way 8
l1d_rq_size 64
l1d_wq_size 64
l1d_pq_size 8
l1d_mshr_size 16
l1d_latency 4

l2c_size 512
l2c_set 1024
l2c_way 8
l2c_rq_size 32
l2c_wq_size 32
l2c_pq_size 16
l2c_mshr_size 32
l2c_latency 10

llc_size 2048
llc_set 2048
llc_way 16
llc_rq_size 32
llc_wq_size 32
llc_pq_size 32
llc_mshr_size 64
llc_latency 20

dram_channel_width 8
dram_wq_size 64
dram_rq_size 64
tRP 15
tRCD 15
tCAS 12.5
dram_dbus_turn_around_time 30
dram_write_high_wm 56
dram_write_low_wm 48
min_dram_writes_per_switch 16
dram_mtps 2400
dram_dbus_return_time 13


Heartbeat CPU  0 instructions:    1000002 cycles:     502361 heartbeat IPC: 1.99060 cumulative IPC: 1.99060 (Simulation time: 0 hr 0 min 1 sec) 
Heartbeat CPU  0 instructions:    2000001 cycles:     993968 heartbeat IPC: 2.03414 cumulative IPC: 2.01214 (Simulation time: 0 hr 0 min 3 sec) 
Heartbeat CPU  0 instructions:    3000001 cycles:    1490686 heartbeat IPC: 2.01321 cumulative IPC: 2.01250 (Simulation time: 0 hr 0 min 4 sec) 
Heartbeat CPU  0 instructions:    4000000 cycles:    1992298 heartbeat IPC: 1.99357 cumulative IPC: 2.00773 (Simulation time: 0 hr 0 min 5 sec) 
Heartbeat CPU  0 instructions:    5000000 cycles:    2494154 heartbeat IPC: 1.99260 cumulative IPC: 2.00469 (Simulation time: 0 hr 0 min 7 sec) 
Heartbeat CPU  0 instructions:    6000001 cycles:    2995931 heartbeat IPC: 1.99292 cumulative IPC: 2.00272 (Simulation time: 0 hr 0 min 8 sec) 
Heartbeat CPU  0 instructions:    7000000 cycles:    3482766 heartbeat IPC: 2.05408 cumulative IPC: 2.00990 (Simulation time: 0 hr 0 min 10 sec) 
Heartbeat CPU  0 instructions:    8000000 cycles:    3984524 heartbeat IPC: 1.99299 cumulative IPC: 2.00777 (Simulation time: 0 hr 0 min 11 sec) 
Heartbeat CPU  0 instructions:    9000001 cycles:    4485490 heartbeat IPC: 1.99615 cumulative IPC: 2.00647 (Simulation time: 0 hr 0 min 13 sec) 
Heartbeat CPU  0 instructions:   10000000 cycles:    4987180 heartbeat IPC: 1.99326 cumulative IPC: 2.00514 (Simulation time: 0 hr 0 min 14 sec) 
Heartbeat CPU  0 instructions:   11000001 cycles:    5481057 heartbeat IPC: 2.02480 cumulative IPC: 2.00691 (Simulation time: 0 hr 0 min 16 sec) 
Heartbeat CPU  0 instructions:   12000000 cycles:    5975800 heartbeat IPC: 2.02125 cumulative IPC: 2.00810 (Simulation time: 0 hr 0 min 17 sec) 
Heartbeat CPU  0 instructions:   13000003 cycles:    6477437 heartbeat IPC: 1.99348 cumulative IPC: 2.00697 (Simulation time: 0 hr 0 min 18 sec) 
Heartbeat CPU  0 instructions:   14000001 cycles:    6978831 heartbeat IPC: 1.99444 cumulative IPC: 2.00607 (Simulation time: 0 hr 0 min 20 sec) 
Heartbeat CPU  0 instructions:   15000003 cycles:    7480181 heartbeat IPC: 1.99462 cumulative IPC: 2.00530 (Simulation time: 0 hr 0 min 21 sec) 
Heartbeat CPU  0 instructions:   16000000 cycles:    7967356 heartbeat IPC: 2.05264 cumulative IPC: 2.00819 (Simulation time: 0 hr 0 min 23 sec) 
Heartbeat CPU  0 instructions:   17000001 cycles:    8469073 heartbeat IPC: 1.99316 cumulative IPC: 2.00730 (Simulation time: 0 hr 0 min 24 sec) 
Heartbeat CPU  0 instructions:   18000001 cycles:    8970413 heartbeat IPC: 1.99465 cumulative IPC: 2.00660 (Simulation time: 0 hr 0 min 26 sec) 
Heartbeat CPU  0 instructions:   19000003 cycles:    9471625 heartbeat IPC: 1.99517 cumulative IPC: 2.00599 (Simulation time: 0 hr 0 min 27 sec) 
Heartbeat CPU  0 instructions:   20000000 cycles:    9968198 heartbeat IPC: 2.01380 cumulative IPC: 2.00638 (Simulation time: 0 hr 0 min 28 sec) 
Heartbeat CPU  0 instructions:   21000001 cycles:   10460195 heartbeat IPC: 2.03253 cumulative IPC: 2.00761 (Simulation time: 0 hr 0 min 30 sec) 
Heartbeat CPU  0 instructions:   22000003 cycles:   10962028 heartbeat IPC: 1.99270 cumulative IPC: 2.00693 (Simulation time: 0 hr 0 min 31 sec) 
Heartbeat CPU  0 instructions:   23000001 cycles:   11464166 heartbeat IPC: 1.99148 cumulative IPC: 2.00625 (Simulation time: 0 hr 0 min 32 sec) 
Heartbeat CPU  0 instructions:   24000000 cycles:   11965688 heartbeat IPC: 1.99393 cumulative IPC: 2.00574 (Simulation time: 0 hr 0 min 34 sec) 
Heartbeat CPU  0 instructions:   25000003 cycles:   12452195 heartbeat IPC: 2.05547 cumulative IPC: 2.00768 (Simulation time: 0 hr 0 min 35 sec) 
Heartbeat CPU  0 instructions:   26000001 cycles:   12954041 heartbeat IPC: 1.99264 cumulative IPC: 2.00710 (Simulation time: 0 hr 0 min 37 sec) 
Heartbeat CPU  0 instructions:   27000003 cycles:   13456049 heartbeat IPC: 1.99200 cumulative IPC: 2.00653 (Simulation time: 0 hr 0 min 38 sec) 
Heartbeat CPU  0 instructions:   28000000 cycles:   13957901 heartbeat IPC: 1.99261 cumulative IPC: 2.00603 (Simulation time: 0 hr 0 min 39 sec) 
Heartbeat CPU  0 instructions:   29000002 cycles:   14455548 heartbeat IPC: 2.00946 cumulative IPC: 2.00615 (Simulation time: 0 hr 0 min 41 sec) 
Heartbeat CPU  0 instructions:   30000000 cycles:   14945908 heartbeat IPC: 2.03931 cumulative IPC: 2.00724 (Simulation time: 0 hr 0 min 42 sec) 
Heartbeat CPU  0 instructions:   31000002 cycles:   15447468 heartbeat IPC: 1.99378 cumulative IPC: 2.00680 (Simulation time: 0 hr 0 min 43 sec) 
Heartbeat CPU  0 instructions:   32000000 cycles:   15948912 heartbeat IPC: 1.99424 cumulative IPC: 2.00641 (Simulation time: 0 hr 0 min 45 sec) 
Heartbeat CPU  0 instructions:   33000001 cycles:   16450907 heartbeat IPC: 1.99205 cumulative IPC: 2.00597 (Simulation time: 0 hr 0 min 46 sec) 
Heartbeat CPU  0 instructions:   34000003 cycles:   16939686 heartbeat IPC: 2.04592 cumulative IPC: 2.00712 (Simulation time: 0 hr 0 min 48 sec) 
Heartbeat CPU  0 instructions:   35000000 cycles:   17438990 heartbeat IPC: 2.00278 cumulative IPC: 2.00700 (Simulation time: 0 hr 0 min 49 sec) 
Heartbeat CPU  0 instructions:   36000000 cycles:   17940268 heartbeat IPC: 1.99490 cumulative IPC: 2.00666 (Simulation time: 0 hr 0 min 50 sec) 
Heartbeat CPU  0 instructions:   37000003 cycles:   18442007 heartbeat IPC: 1.99307 cumulative IPC: 2.00629 (Simulation time: 0 hr 0 min 52 sec) 
Heartbeat CPU  0 instructions:   38000003 cycles:   18942840 heartbeat IPC: 1.99667 cumulative IPC: 2.00604 (Simulation time: 0 hr 0 min 53 sec) 
Heartbeat CPU  0 instructions:   39000003 cycles:   19430390 heartbeat IPC: 2.05107 cumulative IPC: 2.00717 (Simulation time: 0 hr 0 min 55 sec) 
Heartbeat CPU  0 instructions:   40000000 cycles:   19931495 heartbeat IPC: 1.99558 cumulative IPC: 2.00687 (Simulation time: 0 hr 0 min 56 sec) 
Heartbeat CPU  0 instructions:   41000001 cycles:   20433305 heartbeat IPC: 1.99279 cumulative IPC: 2.00653 (Simulation time: 0 hr 0 min 57 sec) 
Heartbeat CPU  0 instructions:   42000002 cycles:   20935203 heartbeat IPC: 1.99244 cumulative IPC: 2.00619 (Simulation time: 0 hr 0 min 59 sec) 
Heartbeat CPU  0 instructions:   43000003 cycles:   21426664 heartbeat IPC: 2.03475 cumulative IPC: 2.00685 (Simulation time: 0 hr 1 min 0 sec) 
Heartbeat CPU  0 instructions:   44000000 cycles:   21923583 heartbeat IPC: 2.01239 cumulative IPC: 2.00697 (Simulation time: 0 hr 1 min 1 sec) 
Heartbeat CPU  0 instructions:   45000001 cycles:   22425564 heartbeat IPC: 1.99211 cumulative IPC: 2.00664 (Simulation time: 0 hr 1 min 3 sec) 
Heartbeat CPU  0 instructions:   46000000 cycles:   22926975 heartbeat IPC: 1.99437 cumulative IPC: 2.00637 (Simulation time: 0 hr 1 min 4 sec) 
Heartbeat CPU  0 instructions:   47000002 cycles:   23428826 heartbeat IPC: 1.99263 cumulative IPC: 2.00608 (Simulation time: 0 hr 1 min 6 sec) 
Heartbeat CPU  0 instructions:   48000000 cycles:   23915436 heartbeat IPC: 2.05503 cumulative IPC: 2.00707 (Simulation time: 0 hr 1 min 7 sec) 
Heartbeat CPU  0 instructions:   49000002 cycles:   24417321 heartbeat IPC: 1.99249 cumulative IPC: 2.00677 (Simulation time: 0 hr 1 min 8 sec) 
Heartbeat CPU  0 instructions:   50000003 cycles:   24918686 heartbeat IPC: 1.99456 cumulative IPC: 2.00653 (Simulation time: 0 hr 1 min 10 sec) 
Heartbeat CPU  0 instructions:   51000003 cycles:   25419984 heartbeat IPC: 1.99482 cumulative IPC: 2.00630 (Simulation time: 0 hr 1 min 11 sec) 
Heartbeat CPU  0 instructions:   52000000 cycles:   25913503 heartbeat IPC: 2.02626 cumulative IPC: 2.00668 (Simulation time: 0 hr 1 min 13 sec) 
Heartbeat CPU  0 instructions:   53000001 cycles:   26408584 heartbeat IPC: 2.01987 cumulative IPC: 2.00692 (Simulation time: 0 hr 1 min 14 sec) 
Heartbeat CPU  0 instructions:   54000003 cycles:   26910254 heartbeat IPC: 1.99335 cumulative IPC: 2.00667 (Simulation time: 0 hr 1 min 15 sec) 
Heartbeat CPU  0 instructions:   55000003 cycles:   27411793 heartbeat IPC: 1.99386 cumulative IPC: 2.00644 (Simulation time: 0 hr 1 min 17 sec) 
Heartbeat CPU  0 instructions:   56000000 cycles:   27912986 heartbeat IPC: 1.99523 cumulative IPC: 2.00623 (Simulation time: 0 hr 1 min 18 sec) 
Heartbeat CPU  0 instructions:   57000002 cycles:   28399985 heartbeat IPC: 2.05340 cumulative IPC: 2.00704 (Simulation time: 0 hr 1 min 19 sec) 
Heartbeat CPU  0 instructions:   58000003 cycles:   28901531 heartbeat IPC: 1.99384 cumulative IPC: 2.00681 (Simulation time: 0 hr 1 min 21 sec) 
Heartbeat CPU  0 instructions:   59000001 cycles:   29403151 heartbeat IPC: 1.99354 cumulative IPC: 2.00659 (Simulation time: 0 hr 1 min 22 sec) 
Heartbeat CPU  0 instructions:   60000000 cycles:   29904296 heartbeat IPC: 1.99543 cumulative IPC: 2.00640 (Simulation time: 0 hr 1 min 23 sec) 
Heartbeat CPU  0 instructions:   61000000 cycles:   30400315 heartbeat IPC: 2.01605 cumulative IPC: 2.00656 (Simulation time: 0 hr 1 min 25 sec) 
Heartbeat CPU  0 instructions:   62000001 cycles:   30892606 heartbeat IPC: 2.03132 cumulative IPC: 2.00695 (Simulation time: 0 hr 1 min 26 sec) 
Heartbeat CPU  0 instructions:   63000001 cycles:   31394408 heartbeat IPC: 1.99282 cumulative IPC: 2.00673 (Simulation time: 0 hr 1 min 28 sec) 
Heartbeat CPU  0 instructions:   64000000 cycles:   31896467 heartbeat IPC: 1.99180 cumulative IPC: 2.00649 (Simulation time: 0 hr 1 min 29 sec) 
Heartbeat CPU  0 instructions:   65000000 cycles:   32398168 heartbeat IPC: 1.99322 cumulative IPC: 2.00629 (Simulation time: 0 hr 1 min 30 sec) 
Heartbeat CPU  0 instructions:   66000003 cycles:   32884404 heartbeat IPC: 2.05662 cumulative IPC: 2.00703 (Simulation time: 0 hr 1 min 32 sec) 
Heartbeat CPU  0 instructions:   67000000 cycles:   33386213 heartbeat IPC: 1.99278 cumulative IPC: 2.00682 (Simulation time: 0 hr 1 min 33 sec) 
Heartbeat CPU  0 instructions:   68000000 cycles:   33888006 heartbeat IPC: 1.99285 cumulative IPC: 2.00661 (Simulation time: 0 hr 1 min 35 sec) 
Heartbeat CPU  0 instructions:   69000001 cycles:   34390049 heartbeat IPC: 1.99186 cumulative IPC: 2.00639 (Simulation time: 0 hr 1 min 36 sec) 
Heartbeat CPU  0 instructions:   70000000 cycles:   34887384 heartbeat IPC: 2.01072 cumulative IPC: 2.00646 (Simulation time: 0 hr 1 min 37 sec) 
Heartbeat CPU  0 instructions:   71000001 cycles:   35377884 heartbeat IPC: 2.03874 cumulative IPC: 2.00690 (Simulation time: 0 hr 1 min 39 sec) 
Heartbeat CPU  0 instructions:   72000000 cycles:   35879775 heartbeat IPC: 1.99246 cumulative IPC: 2.00670 (Simulation time: 0 hr 1 min 40 sec) 
Heartbeat CPU  0 instructions:   73000002 cycles:   36380871 heartbeat IPC: 1.99563 cumulative IPC: 2.00655 (Simulation time: 0 hr 1 min 42 sec) 
Heartbeat CPU  0 instructions:   74000003 cycles:   36882651 heartbeat IPC: 1.99291 cumulative IPC: 2.00636 (Simulation time: 0 hr 1 min 43 sec) 
Heartbeat CPU  0 instructions:   75000001 cycles:   37371404 heartbeat IPC: 2.04602 cumulative IPC: 2.00688 (Simulation time: 0 hr 1 min 45 sec) 
Heartbeat CPU  0 instructions:   76000000 cycles:   37870783 heartbeat IPC: 2.00249 cumulative IPC: 2.00682 (Simulation time: 0 hr 1 min 46 sec) 
Heartbeat CPU  0 instructions:   77000000 cycles:   38372557 heartbeat IPC: 1.99293 cumulative IPC: 2.00664 (Simulation time: 0 hr 1 min 48 sec) 
Heartbeat CPU  0 instructions:   78000003 cycles:   38874032 heartbeat IPC: 1.99412 cumulative IPC: 2.00648 (Simulation time: 0 hr 1 min 49 sec) 
Heartbeat CPU  0 instructions:   79000001 cycles:   39374408 heartbeat IPC: 1.99849 cumulative IPC: 2.00638 (Simulation time: 0 hr 1 min 51 sec) 
Heartbeat CPU  0 instructions:   80000000 cycles:   39862940 heartbeat IPC: 2.04695 cumulative IPC: 2.00688 (Simulation time: 0 hr 1 min 52 sec) 
Heartbeat CPU  0 instructions:   81000003 cycles:   40363945 heartbeat IPC: 1.99599 cumulative IPC: 2.00674 (Simulation time: 0 hr 1 min 54 sec) 
Heartbeat CPU  0 instructions:   82000003 cycles:   40865506 heartbeat IPC: 1.99378 cumulative IPC: 2.00658 (Simulation time: 0 hr 1 min 55 sec) 
Heartbeat CPU  0 instructions:   83000001 cycles:   41367177 heartbeat IPC: 1.99333 cumulative IPC: 2.00642 (Simulation time: 0 hr 1 min 57 sec) 
Heartbeat CPU  0 instructions:   84000000 cycles:   41858395 heartbeat IPC: 2.03575 cumulative IPC: 2.00677 (Simulation time: 0 hr 1 min 58 sec) 
Heartbeat CPU  0 instructions:   85000002 cycles:   42355871 heartbeat IPC: 2.01015 cumulative IPC: 2.00681 (Simulation time: 0 hr 2 min 0 sec) 
Heartbeat CPU  0 instructions:   86000002 cycles:   42857771 heartbeat IPC: 1.99243 cumulative IPC: 2.00664 (Simulation time: 0 hr 2 min 1 sec) 
Heartbeat CPU  0 instructions:   87000002 cycles:   43359308 heartbeat IPC: 1.99387 cumulative IPC: 2.00649 (Simulation time: 0 hr 2 min 3 sec) 
Heartbeat CPU  0 instructions:   88000000 cycles:   43861191 heartbeat IPC: 1.99249 cumulative IPC: 2.00633 (Simulation time: 0 hr 2 min 4 sec) 
Heartbeat CPU  0 instructions:   89000003 cycles:   44347922 heartbeat IPC: 2.05453 cumulative IPC: 2.00686 (Simulation time: 0 hr 2 min 6 sec) 
Heartbeat CPU  0 instructions:   90000002 cycles:   44849973 heartbeat IPC: 1.99183 cumulative IPC: 2.00669 (Simulation time: 0 hr 2 min 7 sec) 
Heartbeat CPU  0 instructions:   91000000 cycles:   45351379 heartbeat IPC: 1.99439 cumulative IPC: 2.00655 (Simulation time: 0 hr 2 min 9 sec) 
Heartbeat CPU  0 instructions:   92000000 cycles:   45853038 heartbeat IPC: 1.99339 cumulative IPC: 2.00641 (Simulation time: 0 hr 2 min 10 sec) 
Heartbeat CPU  0 instructions:   93000002 cycles:   46345875 heartbeat IPC: 2.02907 cumulative IPC: 2.00665 (Simulation time: 0 hr 2 min 12 sec) 
Heartbeat CPU  0 instructions:   94000003 cycles:   46841632 heartbeat IPC: 2.01712 cumulative IPC: 2.00676 (Simulation time: 0 hr 2 min 13 sec) 
Heartbeat CPU  0 instructions:   95000003 cycles:   47343217 heartbeat IPC: 1.99368 cumulative IPC: 2.00662 (Simulation time: 0 hr 2 min 15 sec) 
Heartbeat CPU  0 instructions:   96000000 cycles:   47844847 heartbeat IPC: 1.99350 cumulative IPC: 2.00649 (Simulation time: 0 hr 2 min 16 sec) 
Heartbeat CPU  0 instructions:   97000000 cycles:   48346213 heartbeat IPC: 1.99455 cumulative IPC: 2.00636 (Simulation time: 0 hr 2 min 17 sec) 
Heartbeat CPU  0 instructions:   98000000 cycles:   48832938 heartbeat IPC: 2.05455 cumulative IPC: 2.00684 (Simulation time: 0 hr 2 min 19 sec) 
Heartbeat CPU  0 instructions:   99000002 cycles:   49334573 heartbeat IPC: 1.99349 cumulative IPC: 2.00671 (Simulation time: 0 hr 2 min 20 sec) 
Heartbeat CPU  0 instructions:  100000000 cycles:   49836126 heartbeat IPC: 1.99380 cumulative IPC: 2.00658 (Simulation time: 0 hr 2 min 22 sec) 

Warmup complete CPU  0 instructions:  100000003 cycles:   49836127 (Simulation time: 0 hr 2 min 22 sec) 

Heartbeat CPU  0 instructions:  101000001 cycles:   50696067 heartbeat IPC: 1.16287 cumulative IPC: 1.16287 (Simulation time: 0 hr 2 min 23 sec) 
Heartbeat CPU  0 instructions:  102000002 cycles:   51558596 heartbeat IPC: 1.15938 cumulative IPC: 1.16112 (Simulation time: 0 hr 2 min 25 sec) 
Heartbeat CPU  0 instructions:  103000001 cycles:   52434627 heartbeat IPC: 1.14151 cumulative IPC: 1.15451 (Simulation time: 0 hr 2 min 27 sec) 
Heartbeat CPU  0 instructions:  104000000 cycles:   53307081 heartbeat IPC: 1.14619 cumulative IPC: 1.15242 (Simulation time: 0 hr 2 min 28 sec) 
Heartbeat CPU  0 instructions:  105000003 cycles:   54154886 heartbeat IPC: 1.17952 cumulative IPC: 1.15774 (Simulation time: 0 hr 2 min 30 sec) 
Heartbeat CPU  0 instructions:  106000001 cycles:   55009658 heartbeat IPC: 1.16990 cumulative IPC: 1.15975 (Simulation time: 0 hr 2 min 32 sec) 
Heartbeat CPU  0 instructions:  107000002 cycles:   55876074 heartbeat IPC: 1.15418 cumulative IPC: 1.15895 (Simulation time: 0 hr 2 min 33 sec) 
Heartbeat CPU  0 instructions:  108000000 cycles:   56744151 heartbeat IPC: 1.15197 cumulative IPC: 1.15807 (Simulation time: 0 hr 2 min 35 sec) 
Heartbeat CPU  0 instructions:  109000003 cycles:   57613229 heartbeat IPC: 1.15065 cumulative IPC: 1.15724 (Simulation time: 0 hr 2 min 37 sec) 
Heartbeat CPU  0 instructions:  110000001 cycles:   58469671 heartbeat IPC: 1.16762 cumulative IPC: 1.15827 (Simulation time: 0 hr 2 min 38 sec) 
Heartbeat CPU  0 instructions:  111000003 cycles:   59319170 heartbeat IPC: 1.17717 cumulative IPC: 1.15997 (Simulation time: 0 hr 2 min 40 sec) 
Heartbeat CPU  0 instructions:  112000000 cycles:   60189741 heartbeat IPC: 1.14867 cumulative IPC: 1.15902 (Simulation time: 0 hr 2 min 42 sec) 
Heartbeat CPU  0 instructions:  113000001 cycles:   61058734 heartbeat IPC: 1.15076 cumulative IPC: 1.15838 (Simulation time: 0 hr 2 min 43 sec) 
Heartbeat CPU  0 instructions:  114000002 cycles:   61928766 heartbeat IPC: 1.14938 cumulative IPC: 1.15773 (Simulation time: 0 hr 2 min 45 sec) 
Heartbeat CPU  0 instructions:  115000000 cycles:   62789862 heartbeat IPC: 1.16131 cumulative IPC: 1.15797 (Simulation time: 0 hr 2 min 47 sec) 
Heartbeat CPU  0 instructions:  116000000 cycles:   63648457 heartbeat IPC: 1.16469 cumulative IPC: 1.15839 (Simulation time: 0 hr 2 min 48 sec) 
Heartbeat CPU  0 instructions:  117000002 cycles:   64515362 heartbeat IPC: 1.15353 cumulative IPC: 1.15810 (Simulation time: 0 hr 2 min 50 sec) 
Heartbeat CPU  0 instructions:  118000001 cycles:   65383807 heartbeat IPC: 1.15148 cumulative IPC: 1.15773 (Simulation time: 0 hr 2 min 52 sec) 
Heartbeat CPU  0 instructions:  119000002 cycles:   66257968 heartbeat IPC: 1.14396 cumulative IPC: 1.15700 (Simulation time: 0 hr 2 min 53 sec) 
Heartbeat CPU  0 instructions:  120000000 cycles:   67125882 heartbeat IPC: 1.15219 cumulative IPC: 1.15675 (Simulation time: 0 hr 2 min 55 sec) 
Heartbeat CPU  0 instructions:  121000001 cycles:   67986807 heartbeat IPC: 1.16154 cumulative IPC: 1.15698 (Simulation time: 0 hr 2 min 56 sec) 
Heartbeat CPU  0 instructions:  122000002 cycles:   68847087 heartbeat IPC: 1.16241 cumulative IPC: 1.15723 (Simulation time: 0 hr 2 min 58 sec) 
Heartbeat CPU  0 instructions:  123000000 cycles:   69714254 heartbeat IPC: 1.15318 cumulative IPC: 1.15705 (Simulation time: 0 hr 3 min 0 sec) 
Heartbeat CPU  0 instructions:  124000000 cycles:   70585953 heartbeat IPC: 1.14718 cumulative IPC: 1.15664 (Simulation time: 0 hr 3 min 1 sec) 
Heartbeat CPU  0 instructions:  125000000 cycles:   71462207 heartbeat IPC: 1.14122 cumulative IPC: 1.15601 (Simulation time: 0 hr 3 min 3 sec) 
Heartbeat CPU  0 instructions:  126000000 cycles:   72315455 heartbeat IPC: 1.17199 cumulative IPC: 1.15662 (Simulation time: 0 hr 3 min 5 sec) 
Heartbeat CPU  0 instructions:  127000000 cycles:   73173043 heartbeat IPC: 1.16606 cumulative IPC: 1.15697 (Simulation time: 0 hr 3 min 6 sec) 
Heartbeat CPU  0 instructions:  128000000 cycles:   74036313 heartbeat IPC: 1.15839 cumulative IPC: 1.15702 (Simulation time: 0 hr 3 min 8 sec) 
Heartbeat CPU  0 instructions:  129000002 cycles:   74907372 heartbeat IPC: 1.14803 cumulative IPC: 1.15670 (Simulation time: 0 hr 3 min 10 sec) 
Heartbeat CPU  0 instructions:  130000002 cycles:   75784649 heartbeat IPC: 1.13989 cumulative IPC: 1.15614 (Simulation time: 0 hr 3 min 11 sec) 
Heartbeat CPU  0 instructions:  131000002 cycles:   76639024 heartbeat IPC: 1.17045 cumulative IPC: 1.15659 (Simulation time: 0 hr 3 min 13 sec) 
Heartbeat CPU  0 instructions:  132000000 cycles:   77493349 heartbeat IPC: 1.17051 cumulative IPC: 1.15702 (Simulation time: 0 hr 3 min 15 sec) 
Heartbeat CPU  0 instructions:  133000000 cycles:   78355345 heartbeat IPC: 1.16010 cumulative IPC: 1.15711 (Simulation time: 0 hr 3 min 16 sec) 
Heartbeat CPU  0 instructions:  134000000 cycles:   79226213 heartbeat IPC: 1.14828 cumulative IPC: 1.15685 (Simulation time: 0 hr 3 min 18 sec) 
Heartbeat CPU  0 instructions:  135000002 cycles:   80100417 heartbeat IPC: 1.14390 cumulative IPC: 1.15648 (Simulation time: 0 hr 3 min 20 sec) 
Heartbeat CPU  0 instructions:  136000000 cycles:   80952856 heartbeat IPC: 1.17310 cumulative IPC: 1.15693 (Simulation time: 0 hr 3 min 21 sec) 
Heartbeat CPU  0 instructions:  137000001 cycles:   81805388 heartbeat IPC: 1.17298 cumulative IPC: 1.15736 (Simulation time: 0 hr 3 min 23 sec) 
Heartbeat CPU  0 instructions:  138000003 cycles:   82664137 heartbeat IPC: 1.16449 cumulative IPC: 1.15755 (Simulation time: 0 hr 3 min 25 sec) 
Heartbeat CPU  0 instructions:  139000003 cycles:   83530595 heartbeat IPC: 1.15412 cumulative IPC: 1.15746 (Simulation time: 0 hr 3 min 26 sec) 
Heartbeat CPU  0 instructions:  140000000 cycles:   84404632 heartbeat IPC: 1.14411 cumulative IPC: 1.15712 (Simulation time: 0 hr 3 min 28 sec) 
Heartbeat CPU  0 instructions:  141000003 cycles:   85259595 heartbeat IPC: 1.16964 cumulative IPC: 1.15742 (Simulation time: 0 hr 3 min 29 sec) 
Heartbeat CPU  0 instructions:  142000000 cycles:   86109774 heartbeat IPC: 1.17622 cumulative IPC: 1.15787 (Simulation time: 0 hr 3 min 31 sec) 
Heartbeat CPU  0 instructions:  143000000 cycles:   86965440 heartbeat IPC: 1.16868 cumulative IPC: 1.15811 (Simulation time: 0 hr 3 min 33 sec) 
Heartbeat CPU  0 instructions:  144000000 cycles:   87832643 heartbeat IPC: 1.15313 cumulative IPC: 1.15800 (Simulation time: 0 hr 3 min 34 sec) 
Heartbeat CPU  0 instructions:  145000002 cycles:   88707424 heartbeat IPC: 1.14315 cumulative IPC: 1.15767 (Simulation time: 0 hr 3 min 36 sec) 
Heartbeat CPU  0 instructions:  146000002 cycles:   89572834 heartbeat IPC: 1.15552 cumulative IPC: 1.15762 (Simulation time: 0 hr 3 min 38 sec) 
Heartbeat CPU  0 instructions:  147000002 cycles:   90489986 heartbeat IPC: 1.09033 cumulative IPC: 1.15610 (Simulation time: 0 hr 3 min 39 sec) 
Heartbeat CPU  0 instructions:  148000000 cycles:   91767413 heartbeat IPC: 0.78282 cumulative IPC: 1.14473 (Simulation time: 0 hr 3 min 41 sec) 
Heartbeat CPU  0 instructions:  149000002 cycles:   93049063 heartbeat IPC: 0.78025 cumulative IPC: 1.13392 (Simulation time: 0 hr 3 min 43 sec) 
Heartbeat CPU  0 instructions:  150000002 cycles:   94336578 heartbeat IPC: 0.77669 cumulative IPC: 1.12358 (Simulation time: 0 hr 3 min 45 sec) 
Heartbeat CPU  0 instructions:  151000000 cycles:   95608867 heartbeat IPC: 0.78598 cumulative IPC: 1.11420 (Simulation time: 0 hr 3 min 47 sec) 
Heartbeat CPU  0 instructions:  152000000 cycles:   96883224 heartbeat IPC: 0.78471 cumulative IPC: 1.10528 (Simulation time: 0 hr 3 min 48 sec) 
Heartbeat CPU  0 instructions:  153000003 cycles:   98161157 heartbeat IPC: 0.78252 cumulative IPC: 1.09674 (Simulation time: 0 hr 3 min 50 sec) 
Heartbeat CPU  0 instructions:  154000002 cycles:   99441152 heartbeat IPC: 0.78125 cumulative IPC: 1.08860 (Simulation time: 0 hr 3 min 52 sec) 
Heartbeat CPU  0 instructions:  155000003 cycles:  100721312 heartbeat IPC: 0.78115 cumulative IPC: 1.08086 (Simulation time: 0 hr 3 min 54 sec) 
Heartbeat CPU  0 instructions:  156000000 cycles:  101996435 heartbeat IPC: 0.78424 cumulative IPC: 1.07361 (Simulation time: 0 hr 3 min 56 sec) 
Heartbeat CPU  0 instructions:  157000003 cycles:  103276188 heartbeat IPC: 0.78140 cumulative IPC: 1.06662 (Simulation time: 0 hr 3 min 58 sec) 
Heartbeat CPU  0 instructions:  158000000 cycles:  104556457 heartbeat IPC: 0.78108 cumulative IPC: 1.05994 (Simulation time: 0 hr 3 min 59 sec) 
Heartbeat CPU  0 instructions:  159000003 cycles:  105846993 heartbeat IPC: 0.77487 cumulative IPC: 1.05337 (Simulation time: 0 hr 4 min 1 sec) 
Heartbeat CPU  0 instructions:  160000000 cycles:  107125244 heartbeat IPC: 0.78232 cumulative IPC: 1.04732 (Simulation time: 0 hr 4 min 3 sec) 
Heartbeat CPU  0 instructions:  161000000 cycles:  108414655 heartbeat IPC: 0.77555 cumulative IPC: 1.04134 (Simulation time: 0 hr 4 min 5 sec) 
Heartbeat CPU  0 instructions:  162000000 cycles:  109708981 heartbeat IPC: 0.77260 cumulative IPC: 1.03553 (Simulation time: 0 hr 4 min 7 sec) 
Heartbeat CPU  0 instructions:  163000002 cycles:  111017280 heartbeat IPC: 0.76435 cumulative IPC: 1.02973 (Simulation time: 0 hr 4 min 9 sec) 
Heartbeat CPU  0 instructions:  164000000 cycles:  112294287 heartbeat IPC: 0.78308 cumulative IPC: 1.02469 (Simulation time: 0 hr 4 min 10 sec) 
Heartbeat CPU  0 instructions:  165000001 cycles:  113581466 heartbeat IPC: 0.77689 cumulative IPC: 1.01968 (Simulation time: 0 hr 4 min 12 sec) 
Heartbeat CPU  0 instructions:  166000001 cycles:  114869043 heartbeat IPC: 0.77665 cumulative IPC: 1.01487 (Simulation time: 0 hr 4 min 14 sec) 
Heartbeat CPU  0 instructions:  167000001 cycles:  116158218 heartbeat IPC: 0.77569 cumulative IPC: 1.01022 (Simulation time: 0 hr 4 min 16 sec) 
Heartbeat CPU  0 instructions:  168000000 cycles:  117449345 heartbeat IPC: 0.77452 cumulative IPC: 1.00572 (Simulation time: 0 hr 4 min 18 sec) 
Heartbeat CPU  0 instructions:  169000002 cycles:  118740083 heartbeat IPC: 0.77475 cumulative IPC: 1.00139 (Simulation time: 0 hr 4 min 20 sec) 
Heartbeat CPU  0 instructions:  170000002 cycles:  120015392 heartbeat IPC: 0.78412 cumulative IPC: 0.99745 (Simulation time: 0 hr 4 min 21 sec) 
Heartbeat CPU  0 instructions:  171000002 cycles:  121293644 heartbeat IPC: 0.78232 cumulative IPC: 0.99360 (Simulation time: 0 hr 4 min 23 sec) 
Heartbeat CPU  0 instructions:  172000000 cycles:  122571326 heartbeat IPC: 0.78267 cumulative IPC: 0.98989 (Simulation time: 0 hr 4 min 25 sec) 
Heartbeat CPU  0 instructions:  173000002 cycles:  123845670 heartbeat IPC: 0.78472 cumulative IPC: 0.98636 (Simulation time: 0 hr 4 min 27 sec) 
Heartbeat CPU  0 instructions:  174000003 cycles:  125131360 heartbeat IPC: 0.77779 cumulative IPC: 0.98280 (Simulation time: 0 hr 4 min 29 sec) 
Heartbeat CPU  0 instructions:  175000002 cycles:  126417158 heartbeat IPC: 0.77773 cumulative IPC: 0.97935 (Simulation time: 0 hr 4 min 30 sec) 
Heartbeat CPU  0 instructions:  176000000 cycles:  127701044 heartbeat IPC: 0.77888 cumulative IPC: 0.97605 (Simulation time: 0 hr 4 min 32 sec) 
Heartbeat CPU  0 instructions:  177000003 cycles:  128999400 heartbeat IPC: 0.77021 cumulative IPC: 0.97267 (Simulation time: 0 hr 4 min 34 sec) 
Heartbeat CPU  0 instructions:  178000000 cycles:  130287173 heartbeat IPC: 0.77653 cumulative IPC: 0.96953 (Simulation time: 0 hr 4 min 36 sec) 
Heartbeat CPU  0 instructions:  179000002 cycles:  131585461 heartbeat IPC: 0.77025 cumulative IPC: 0.96637 (Simulation time: 0 hr 4 min 38 sec) 
Heartbeat CPU  0 instructions:  180000000 cycles:  132867999 heartbeat IPC: 0.77970 cumulative IPC: 0.96349 (Simulation time: 0 hr 4 min 40 sec) 
Heartbeat CPU  0 instructions:  181000003 cycles:  134153316 heartbeat IPC: 0.77802 cumulative IPC: 0.96066 (Simulation time: 0 hr 4 min 41 sec) 
Heartbeat CPU  0 instructions:  182000002 cycles:  135430533 heartbeat IPC: 0.78295 cumulative IPC: 0.95801 (Simulation time: 0 hr 4 min 43 sec) 
Heartbeat CPU  0 instructions:  183000000 cycles:  136714642 heartbeat IPC: 0.77875 cumulative IPC: 0.95536 (Simulation time: 0 hr 4 min 45 sec) 
Heartbeat CPU  0 instructions:  184000000 cycles:  138007979 heartbeat IPC: 0.77319 cumulative IPC: 0.95268 (Simulation time: 0 hr 4 min 47 sec) 
Heartbeat CPU  0 instructions:  185000003 cycles:  139278819 heartbeat IPC: 0.78688 cumulative IPC: 0.95033 (Simulation time: 0 hr 4 min 49 sec) 
Heartbeat CPU  0 instructions:  186000001 cycles:  140558832 heartbeat IPC: 0.78124 cumulative IPC: 0.94794 (Simulation time: 0 hr 4 min 50 sec) 
Heartbeat CPU  0 instructions:  187000002 cycles:  141841786 heartbeat IPC: 0.77945 cumulative IPC: 0.94559 (Simulation time: 0 hr 4 min 52 sec) 
Heartbeat CPU  0 instructions:  188000000 cycles:  143119605 heartbeat IPC: 0.78258 cumulative IPC: 0.94336 (Simulation time: 0 hr 4 min 54 sec) 
Heartbeat CPU  0 instructions:  189000001 cycles:  144405097 heartbeat IPC: 0.77791 cumulative IPC: 0.94111 (Simulation time: 0 hr 4 min 56 sec) 
Heartbeat CPU  0 instructions:  190000003 cycles:  145691144 heartbeat IPC: 0.77758 cumulative IPC: 0.93892 (Simulation time: 0 hr 4 min 58 sec) 
Heartbeat CPU  0 instructions:  191000002 cycles:  146972469 heartbeat IPC: 0.78044 cumulative IPC: 0.93683 (Simulation time: 0 hr 4 min 59 sec) 
Heartbeat CPU  0 instructions:  192000000 cycles:  148220518 heartbeat IPC: 0.80125 cumulative IPC: 0.93511 (Simulation time: 0 hr 5 min 1 sec) 
Heartbeat CPU  0 instructions:  193000003 cycles:  149116530 heartbeat IPC: 1.11606 cumulative IPC: 0.93674 (Simulation time: 0 hr 5 min 3 sec) 
Heartbeat CPU  0 instructions:  194000001 cycles:  153260922 heartbeat IPC: 0.24129 cumulative IPC: 0.90887 (Simulation time: 0 hr 5 min 6 sec) 
Heartbeat CPU  0 instructions:  195000000 cycles:  156764393 heartbeat IPC: 0.28543 cumulative IPC: 0.88845 (Simulation time: 0 hr 5 min 10 sec) 
Heartbeat CPU  0 instructions:  196000000 cycles:  157475967 heartbeat IPC: 1.40534 cumulative IPC: 0.89186 (Simulation time: 0 hr 5 min 11 sec) 
Heartbeat CPU  0 instructions:  197000000 cycles:  158188181 heartbeat IPC: 1.40407 cumulative IPC: 0.89523 (Simulation time: 0 hr 5 min 13 sec) 
Heartbeat CPU  0 instructions:  198000003 cycles:  158898716 heartbeat IPC: 1.40739 cumulative IPC: 0.89857 (Simulation time: 0 hr 5 min 15 sec) 
Heartbeat CPU  0 instructions:  199000002 cycles:  159613202 heartbeat IPC: 1.39961 cumulative IPC: 0.90183 (Simulation time: 0 hr 5 min 16 sec) 
Heartbeat CPU  0 instructions:  200000000 cycles:  160323137 heartbeat IPC: 1.40858 cumulative IPC: 0.90508 (Simulation time: 0 hr 5 min 18 sec) 
Finished CPU 0 instructions: 100000000 cycles: 110487039 cumulative IPC: 0.90508 (Simulation time: 0 hr 5 min 18 sec) 

ChampSim completed all CPUs

[ROI Statistics]
Core_0_instructions 100000000
Core_0_cycles 110487039
Core_0_IPC 0.90508

Core_0_branch_prediction_accuracy 99.15344
Core_0_branch_MPKI 0.35029
Core_0_average_ROB_occupancy_at_mispredict 249.75971

Core_0_L1D_total_access 49397645
Core_0_L1D_total_hit 47420414
Core_0_L1D_total_miss 1977231
Core_0_L1D_loads 23264435
Core_0_L1D_load_hit 22654559
Core_0_L1D_load_miss 609876
Core_0_L1D_RFOs 4517893
Core_0_L1D_RFO_hit 4202996
Core_0_L1D_RFO_miss 314897
Core_0_L1D_prefetches 21615317
Core_0_L1D_prefetch_hit 20562859
Core_0_L1D_prefetch_miss 1052458
Core_0_L1D_writebacks 0
Core_0_L1D_writeback_hit 0
Core_0_L1D_writeback_miss 0
Core_0_L1D_prefetch_requested 59193032
Core_0_L1D_prefetch_issued 57124671
Core_0_L1D_prefetch_useful 1574767
Core_0_L1D_prefetch_useless 1189971
Core_0_L1D_prefetch_late 211234
Core_0_L1D_average_miss_latency 11885220.90108

Core_0_L1I_total_access 22686260
Core_0_L1I_total_hit 22686040
Core_0_L1I_total_miss 220
Core_0_L1I_loads 22686260
Core_0_L1I_load_hit 22686040
Core_0_L1I_load_miss 220
Core_0_L1I_RFOs 0
Core_0_L1I_RFO_hit 0
Core_0_L1I_RFO_miss 0
Core_0_L1I_prefetches 0
Core_0_L1I_prefetch_hit 0
Core_0_L1I_prefetch_miss 0
Core_0_L1I_writebacks 0
Core_0_L1I_writeback_hit 0
Core_0_L1I_writeback_miss 0
Core_0_L1I_prefetch_requested 0
Core_0_L1I_prefetch_issued 0
Core_0_L1I_prefetch_useful 0
Core_0_L1I_prefetch_useless 0
Core_0_L1I_prefetch_late 0
Core_0_L1I_average_miss_latency 215.93636

Core_0_L2C_total_access 3636265
Core_0_L2C_total_hit 2538565
Core_0_L2C_total_miss 1097700
Core_0_L2C_loads 400483
Core_0_L2C_load_hit 333333
Core_0_L2C_load_miss 67150
Core_0_L2C_RFOs 314746
Core_0_L2C_RFO_hit 127932
Core_0_L2C_RFO_miss 186814
Core_0_L2C_prefetches 2362094
Core_0_L2C_prefetch_hit 1518481
Core_0_L2C_prefetch_miss 843613
Core_0_L2C_writebacks 558942
Core_0_L2C_writeback_hit 558819
Core_0_L2C_writeback_miss 123
Core_0_L2C_prefetch_requested 4020021
Core_0_L2C_prefetch_issued 3960721
Core_0_L2C_prefetch_useful 167517
Core_0_L2C_prefetch_useless 1198162
Core_0_L2C_prefetch_late 2839
Core_0_L2C_average_miss_latency 262.50760

Core_0_LLC_total_access 1507785
Core_0_LLC_total_hit 507897
Core_0_LLC_total_miss 999888
Core_0_LLC_loads 64329
Core_0_LLC_load_hit 16182
Core_0_LLC_load_miss 48147
Core_0_LLC_RFOs 186814
Core_0_LLC_RFO_hit 11852
Core_0_LLC_RFO_miss 174962
Core_0_LLC_prefetches 846433
Core_0_LLC_prefetch_hit 76146
Core_0_LLC_prefetch_miss 770287
Core_0_LLC_writebacks 410209
Core_0_LLC_writeback_hit 403717
Core_0_LLC_writeback_miss 6492
Core_0_LLC_prefetch_requested 0
Core_0_LLC_prefetch_issued 0
Core_0_LLC_prefetch_useful 33946
Core_0_LLC_prefetch_useless 1078572
Core_0_LLC_prefetch_late 0
Core_0_LLC_average_miss_latency 254.13342

Core_0_major_page_fault 0
Core_0_minor_page_fault 15627

CPU 0 L1D next line prefetcher final stats
CPU 0 L2C next line prefetcher final stats
Channel_0_RQ_row_buffer_hit 338464
Channel_0_RQ_row_buffer_miss 654928
Channel_0_WQ_row_buffer_hit 79080
Channel_0_WQ_row_buffer_miss 302677
Channel_0_WQ_full 0
Channel_0_dbus_congested 461290

avg_congested_cycle 9
