*************************************************
   ChampSim Multicore Out-of-Order Simulator
   Last compiled: Dec 22 2023 14:42:02
*************************************************

trace_0 ./test_trace/482.sphinx3-1100B.champsimtrace.xz
CPU 0 L1D next line prefetcher
CPU 0 L2C next line prefetcher
Initialize DRRIP state
Assign rand_sets[0]: 454  LLC: 2048
rand_sets[0]: 454
Assign rand_sets[1]: 1662  LLC: 2048
rand_sets[1]: 1662
Assign rand_sets[2]: 1921  LLC: 2048
rand_sets[2]: 1921
Assign rand_sets[3]: 1131  LLC: 2048
rand_sets[3]: 1131
Assign rand_sets[4]: 331  LLC: 2048
rand_sets[4]: 331
Assign rand_sets[5]: 1531  LLC: 2048
rand_sets[5]: 1531
Assign rand_sets[6]: 482  LLC: 2048
rand_sets[6]: 482
Assign rand_sets[7]: 1275  LLC: 2048
rand_sets[7]: 1275
Assign rand_sets[8]: 1876  LLC: 2048
rand_sets[8]: 1876
Assign rand_sets[9]: 2038  LLC: 2048
rand_sets[9]: 2038
Assign rand_sets[10]: 701  LLC: 2048
rand_sets[10]: 701
Assign rand_sets[11]: 479  LLC: 2048
rand_sets[11]: 479
Assign rand_sets[12]: 892  LLC: 2048
rand_sets[12]: 892
Assign rand_sets[13]: 1820  LLC: 2048
rand_sets[13]: 1820
Assign rand_sets[14]: 1505  LLC: 2048
rand_sets[14]: 1505
Assign rand_sets[15]: 1159  LLC: 2048
rand_sets[15]: 1159
Assign rand_sets[16]: 513  LLC: 2048
rand_sets[16]: 513
Assign rand_sets[17]: 703  LLC: 2048
rand_sets[17]: 703
Assign rand_sets[18]: 561  LLC: 2048
rand_sets[18]: 561
Assign rand_sets[19]: 990  LLC: 2048
rand_sets[19]: 990
Assign rand_sets[20]: 342  LLC: 2048
rand_sets[20]: 342
Assign rand_sets[21]: 882  LLC: 2048
rand_sets[21]: 882
Assign rand_sets[22]: 15  LLC: 2048
rand_sets[22]: 15
Assign rand_sets[23]: 71  LLC: 2048
rand_sets[23]: 71
Assign rand_sets[24]: 1127  LLC: 2048
rand_sets[24]: 1127
Assign rand_sets[25]: 1382  LLC: 2048
rand_sets[25]: 1382
Assign rand_sets[26]: 647  LLC: 2048
rand_sets[26]: 647
Assign rand_sets[27]: 857  LLC: 2048
rand_sets[27]: 857
Assign rand_sets[28]: 1450  LLC: 2048
rand_sets[28]: 1450
Assign rand_sets[29]: 1160  LLC: 2048
rand_sets[29]: 1160
Assign rand_sets[30]: 1852  LLC: 2048
rand_sets[30]: 1852
Assign rand_sets[31]: 1881  LLC: 2048
rand_sets[31]: 1881
Assign rand_sets[32]: 1770  LLC: 2048
rand_sets[32]: 1770
Assign rand_sets[33]: 1622  LLC: 2048
rand_sets[33]: 1622
Assign rand_sets[34]: 275  LLC: 2048
rand_sets[34]: 275
Assign rand_sets[35]: 635  LLC: 2048
rand_sets[35]: 635
Assign rand_sets[36]: 466  LLC: 2048
rand_sets[36]: 466
Assign rand_sets[37]: 1413  LLC: 2048
rand_sets[37]: 1413
Assign rand_sets[38]: 417  LLC: 2048
rand_sets[38]: 417
Assign rand_sets[39]: 472  LLC: 2048
rand_sets[39]: 472
Assign rand_sets[40]: 1340  LLC: 2048
rand_sets[40]: 1340
Assign rand_sets[41]: 852  LLC: 2048
rand_sets[41]: 852
Assign rand_sets[42]: 1365  LLC: 2048
rand_sets[42]: 1365
Assign rand_sets[43]: 47  LLC: 2048
rand_sets[43]: 47
Assign rand_sets[44]: 823  LLC: 2048
rand_sets[44]: 823
Assign rand_sets[45]: 686  LLC: 2048
rand_sets[45]: 686
Assign rand_sets[46]: 1637  LLC: 2048
rand_sets[46]: 1637
Assign rand_sets[47]: 1115  LLC: 2048
rand_sets[47]: 1115
Assign rand_sets[48]: 986  LLC: 2048
rand_sets[48]: 986
Assign rand_sets[49]: 258  LLC: 2048
rand_sets[49]: 258
Assign rand_sets[50]: 633  LLC: 2048
rand_sets[50]: 633
Assign rand_sets[51]: 920  LLC: 2048
rand_sets[51]: 920
Assign rand_sets[52]: 204  LLC: 2048
rand_sets[52]: 204
Assign rand_sets[53]: 227  LLC: 2048
rand_sets[53]: 227
Assign rand_sets[54]: 1818  LLC: 2048
rand_sets[54]: 1818
Assign rand_sets[55]: 886  LLC: 2048
rand_sets[55]: 886
Assign rand_sets[56]: 1422  LLC: 2048
rand_sets[56]: 1422
Assign rand_sets[57]: 607  LLC: 2048
rand_sets[57]: 607
Assign rand_sets[58]: 217  LLC: 2048
rand_sets[58]: 217
Assign rand_sets[59]: 1945  LLC: 2048
rand_sets[59]: 1945
Assign rand_sets[60]: 143  LLC: 2048
rand_sets[60]: 143
Assign rand_sets[61]: 1311  LLC: 2048
rand_sets[61]: 1311
Assign rand_sets[62]: 319  LLC: 2048
rand_sets[62]: 319
Assign rand_sets[63]: 1846  LLC: 2048
rand_sets[63]: 1846
LLC Next Line Prefetcher
warmup_instructions 100000000
simulation_instructions 100000000
champsim_seed 260

num_cpus 1
cpu_freq 4000
dram_io_freq 2400
page_size 4096
block_size 64
max_read_per_cycle 8
max_fill_per_cycle 1
dram_channels 1
dram_ranks 1
dram_banks 8
dram_rows 65536
dram_columns 128
dram_row_size 8
dram_size 4096
dram_pages 1048576

fetch_width 6
decode_width 6
exec_width 4
lq_width 2
sq_width 2
retire_width 4
scheduler_size 128
branch_mispredict_penalty 20
rob_size 256
lq_size 72
sq_size 56
num_instr_destinations_sparc 4
num_instr_destinations 2
num_instr_sources 4

itlb_set 16
itlb_way 8
itlb_rq_size 16
itlb_wq_size 16
itlb_pq_size 0
itlb_mshr_size 8
itlb_latency 1

dtlb_set 16
dtlb_way 4
dtlb_rq_size 16
dtlb_wq_size 16
dtlb_pq_size 0
dtlb_mshr_size 8
dtlb_latency 1

stlb_set 128
stlb_way 12
stlb_rq_size 32
stlb_wq_size 32
stlb_pq_size 0
stlb_mshr_size 16
stlb_latency 8

l1i_size 32
l1i_set 64
l1i_way 8
l1i_rq_size 64
l1i_wq_size 64
l1i_pq_size 8
l1i_mshr_size 8
l1i_latency 1

l1d_size 32
l1d_set 64
l1d_way 8
l1d_rq_size 64
l1d_wq_size 64
l1d_pq_size 8
l1d_mshr_size 16
l1d_latency 4

l2c_size 512
l2c_set 1024
l2c_way 8
l2c_rq_size 32
l2c_wq_size 32
l2c_pq_size 16
l2c_mshr_size 32
l2c_latency 10

llc_size 2048
llc_set 2048
llc_way 16
llc_rq_size 32
llc_wq_size 32
llc_pq_size 32
llc_mshr_size 64
llc_latency 20

dram_channel_width 8
dram_wq_size 64
dram_rq_size 64
tRP 15
tRCD 15
tCAS 12.5
dram_dbus_turn_around_time 30
dram_write_high_wm 56
dram_write_low_wm 48
min_dram_writes_per_switch 16
dram_mtps 2400
dram_dbus_return_time 13


Heartbeat CPU  0 instructions:    1000001 cycles:     367554 heartbeat IPC: 2.72069 cumulative IPC: 2.72069 (Simulation time: 0 hr 0 min 1 sec) 
Heartbeat CPU  0 instructions:    2000003 cycles:     794586 heartbeat IPC: 2.34175 cumulative IPC: 2.51704 (Simulation time: 0 hr 0 min 2 sec) 
Heartbeat CPU  0 instructions:    3000001 cycles:    1251864 heartbeat IPC: 2.18685 cumulative IPC: 2.39643 (Simulation time: 0 hr 0 min 3 sec) 
Heartbeat CPU  0 instructions:    4000000 cycles:    1733824 heartbeat IPC: 2.07486 cumulative IPC: 2.30704 (Simulation time: 0 hr 0 min 4 sec) 
Heartbeat CPU  0 instructions:    5000000 cycles:    2174986 heartbeat IPC: 2.26674 cumulative IPC: 2.29887 (Simulation time: 0 hr 0 min 5 sec) 
Heartbeat CPU  0 instructions:    6000001 cycles:    2542101 heartbeat IPC: 2.72394 cumulative IPC: 2.36025 (Simulation time: 0 hr 0 min 6 sec) 
Heartbeat CPU  0 instructions:    7000000 cycles:    2932867 heartbeat IPC: 2.55907 cumulative IPC: 2.38674 (Simulation time: 0 hr 0 min 7 sec) 
Heartbeat CPU  0 instructions:    8000000 cycles:    3391194 heartbeat IPC: 2.18185 cumulative IPC: 2.35905 (Simulation time: 0 hr 0 min 8 sec) 
Heartbeat CPU  0 instructions:    9000000 cycles:    3848968 heartbeat IPC: 2.18448 cumulative IPC: 2.33829 (Simulation time: 0 hr 0 min 9 sec) 
Heartbeat CPU  0 instructions:   10000000 cycles:    4338296 heartbeat IPC: 2.04362 cumulative IPC: 2.30505 (Simulation time: 0 hr 0 min 10 sec) 
Heartbeat CPU  0 instructions:   11000001 cycles:    4709752 heartbeat IPC: 2.69211 cumulative IPC: 2.33558 (Simulation time: 0 hr 0 min 12 sec) 
Heartbeat CPU  0 instructions:   12000000 cycles:    5076805 heartbeat IPC: 2.72440 cumulative IPC: 2.36369 (Simulation time: 0 hr 0 min 13 sec) 
Heartbeat CPU  0 instructions:   13000001 cycles:    5525738 heartbeat IPC: 2.22751 cumulative IPC: 2.35263 (Simulation time: 0 hr 0 min 14 sec) 
Heartbeat CPU  0 instructions:   14000000 cycles:    5983546 heartbeat IPC: 2.18432 cumulative IPC: 2.33975 (Simulation time: 0 hr 0 min 15 sec) 
Heartbeat CPU  0 instructions:   15000000 cycles:    6465362 heartbeat IPC: 2.07548 cumulative IPC: 2.32006 (Simulation time: 0 hr 0 min 16 sec) 
Heartbeat CPU  0 instructions:   16000000 cycles:    6874236 heartbeat IPC: 2.44574 cumulative IPC: 2.32753 (Simulation time: 0 hr 0 min 17 sec) 
Heartbeat CPU  0 instructions:   17000003 cycles:    7241399 heartbeat IPC: 2.72359 cumulative IPC: 2.34761 (Simulation time: 0 hr 0 min 18 sec) 
Heartbeat CPU  0 instructions:   18000003 cycles:    7653071 heartbeat IPC: 2.42912 cumulative IPC: 2.35200 (Simulation time: 0 hr 0 min 19 sec) 
Heartbeat CPU  0 instructions:   19000003 cycles:    8110768 heartbeat IPC: 2.18485 cumulative IPC: 2.34257 (Simulation time: 0 hr 0 min 20 sec) 
Heartbeat CPU  0 instructions:   20000000 cycles:    8578779 heartbeat IPC: 2.13670 cumulative IPC: 2.33133 (Simulation time: 0 hr 0 min 21 sec) 
Heartbeat CPU  0 instructions:   21000002 cycles:    9036767 heartbeat IPC: 2.18347 cumulative IPC: 2.32384 (Simulation time: 0 hr 0 min 22 sec) 
Heartbeat CPU  0 instructions:   22000003 cycles:    9403774 heartbeat IPC: 2.72475 cumulative IPC: 2.33949 (Simulation time: 0 hr 0 min 23 sec) 
Heartbeat CPU  0 instructions:   23000001 cycles:    9784138 heartbeat IPC: 2.62906 cumulative IPC: 2.35074 (Simulation time: 0 hr 0 min 25 sec) 
Heartbeat CPU  0 instructions:   24000000 cycles:   10239166 heartbeat IPC: 2.19766 cumulative IPC: 2.34394 (Simulation time: 0 hr 0 min 26 sec) 
Heartbeat CPU  0 instructions:   25000002 cycles:   10694391 heartbeat IPC: 2.19672 cumulative IPC: 2.33767 (Simulation time: 0 hr 0 min 27 sec) 
Heartbeat CPU  0 instructions:   26000002 cycles:   11172440 heartbeat IPC: 2.09184 cumulative IPC: 2.32716 (Simulation time: 0 hr 0 min 28 sec) 
Heartbeat CPU  0 instructions:   27000001 cycles:   11564658 heartbeat IPC: 2.54960 cumulative IPC: 2.33470 (Simulation time: 0 hr 0 min 29 sec) 
Heartbeat CPU  0 instructions:   28000000 cycles:   11931549 heartbeat IPC: 2.72560 cumulative IPC: 2.34672 (Simulation time: 0 hr 0 min 30 sec) 
Heartbeat CPU  0 instructions:   29000001 cycles:   12367471 heartbeat IPC: 2.29399 cumulative IPC: 2.34486 (Simulation time: 0 hr 0 min 31 sec) 
Heartbeat CPU  0 instructions:   30000003 cycles:   12820790 heartbeat IPC: 2.20596 cumulative IPC: 2.33995 (Simulation time: 0 hr 0 min 32 sec) 
Heartbeat CPU  0 instructions:   31000002 cycles:   13274490 heartbeat IPC: 2.20410 cumulative IPC: 2.33531 (Simulation time: 0 hr 0 min 33 sec) 
Heartbeat CPU  0 instructions:   32000000 cycles:   13757150 heartbeat IPC: 2.07185 cumulative IPC: 2.32606 (Simulation time: 0 hr 0 min 34 sec) 
Heartbeat CPU  0 instructions:   33000003 cycles:   14157254 heartbeat IPC: 2.49936 cumulative IPC: 2.33096 (Simulation time: 0 hr 0 min 35 sec) 
Heartbeat CPU  0 instructions:   34000003 cycles:   14524164 heartbeat IPC: 2.72546 cumulative IPC: 2.34093 (Simulation time: 0 hr 0 min 36 sec) 
Heartbeat CPU  0 instructions:   35000000 cycles:   14950893 heartbeat IPC: 2.34340 cumulative IPC: 2.34100 (Simulation time: 0 hr 0 min 37 sec) 
Heartbeat CPU  0 instructions:   36000000 cycles:   15404320 heartbeat IPC: 2.20543 cumulative IPC: 2.33701 (Simulation time: 0 hr 0 min 39 sec) 
Heartbeat CPU  0 instructions:   37000000 cycles:   15857890 heartbeat IPC: 2.20473 cumulative IPC: 2.33322 (Simulation time: 0 hr 0 min 40 sec) 
Heartbeat CPU  0 instructions:   38000003 cycles:   16345203 heartbeat IPC: 2.05208 cumulative IPC: 2.32484 (Simulation time: 0 hr 0 min 41 sec) 
Heartbeat CPU  0 instructions:   39000001 cycles:   16751474 heartbeat IPC: 2.46141 cumulative IPC: 2.32815 (Simulation time: 0 hr 0 min 42 sec) 
Heartbeat CPU  0 instructions:   40000000 cycles:   17118499 heartbeat IPC: 2.72461 cumulative IPC: 2.33665 (Simulation time: 0 hr 0 min 43 sec) 
Heartbeat CPU  0 instructions:   41000003 cycles:   17538352 heartbeat IPC: 2.38179 cumulative IPC: 2.33773 (Simulation time: 0 hr 0 min 44 sec) 
Heartbeat CPU  0 instructions:   42000000 cycles:   17996011 heartbeat IPC: 2.18503 cumulative IPC: 2.33385 (Simulation time: 0 hr 0 min 45 sec) 
Heartbeat CPU  0 instructions:   43000001 cycles:   18452017 heartbeat IPC: 2.19296 cumulative IPC: 2.33037 (Simulation time: 0 hr 0 min 46 sec) 
Heartbeat CPU  0 instructions:   44000000 cycles:   18941770 heartbeat IPC: 2.04184 cumulative IPC: 2.32291 (Simulation time: 0 hr 0 min 47 sec) 
Heartbeat CPU  0 instructions:   45000002 cycles:   19352714 heartbeat IPC: 2.43343 cumulative IPC: 2.32526 (Simulation time: 0 hr 0 min 48 sec) 
Heartbeat CPU  0 instructions:   46000000 cycles:   19719916 heartbeat IPC: 2.72329 cumulative IPC: 2.33267 (Simulation time: 0 hr 0 min 49 sec) 
Heartbeat CPU  0 instructions:   47000002 cycles:   20132650 heartbeat IPC: 2.42287 cumulative IPC: 2.33452 (Simulation time: 0 hr 0 min 50 sec) 
Heartbeat CPU  0 instructions:   48000000 cycles:   20591916 heartbeat IPC: 2.17738 cumulative IPC: 2.33101 (Simulation time: 0 hr 0 min 51 sec) 
Heartbeat CPU  0 instructions:   49000003 cycles:   21048114 heartbeat IPC: 2.19204 cumulative IPC: 2.32800 (Simulation time: 0 hr 0 min 52 sec) 
Heartbeat CPU  0 instructions:   50000003 cycles:   21558355 heartbeat IPC: 1.95986 cumulative IPC: 2.31929 (Simulation time: 0 hr 0 min 53 sec) 
Heartbeat CPU  0 instructions:   51000002 cycles:   22019685 heartbeat IPC: 2.16764 cumulative IPC: 2.31611 (Simulation time: 0 hr 0 min 55 sec) 
Heartbeat CPU  0 instructions:   52000000 cycles:   22392107 heartbeat IPC: 2.68512 cumulative IPC: 2.32225 (Simulation time: 0 hr 0 min 56 sec) 
Heartbeat CPU  0 instructions:   53000001 cycles:   22759241 heartbeat IPC: 2.72380 cumulative IPC: 2.32872 (Simulation time: 0 hr 0 min 57 sec) 
Heartbeat CPU  0 instructions:   54000001 cycles:   23208506 heartbeat IPC: 2.22586 cumulative IPC: 2.32673 (Simulation time: 0 hr 0 min 58 sec) 
Heartbeat CPU  0 instructions:   55000001 cycles:   23661733 heartbeat IPC: 2.20640 cumulative IPC: 2.32443 (Simulation time: 0 hr 0 min 59 sec) 
Heartbeat CPU  0 instructions:   56000000 cycles:   24118438 heartbeat IPC: 2.18959 cumulative IPC: 2.32188 (Simulation time: 0 hr 1 min 0 sec) 
Heartbeat CPU  0 instructions:   57000003 cycles:   24603113 heartbeat IPC: 2.06324 cumulative IPC: 2.31678 (Simulation time: 0 hr 1 min 1 sec) 
Heartbeat CPU  0 instructions:   58000001 cycles:   24995688 heartbeat IPC: 2.54728 cumulative IPC: 2.32040 (Simulation time: 0 hr 1 min 2 sec) 
Heartbeat CPU  0 instructions:   59000001 cycles:   25362633 heartbeat IPC: 2.72520 cumulative IPC: 2.32626 (Simulation time: 0 hr 1 min 3 sec) 
Heartbeat CPU  0 instructions:   60000000 cycles:   25801608 heartbeat IPC: 2.27803 cumulative IPC: 2.32544 (Simulation time: 0 hr 1 min 4 sec) 
Heartbeat CPU  0 instructions:   61000000 cycles:   26257317 heartbeat IPC: 2.19438 cumulative IPC: 2.32316 (Simulation time: 0 hr 1 min 5 sec) 
Heartbeat CPU  0 instructions:   62000000 cycles:   26714411 heartbeat IPC: 2.18773 cumulative IPC: 2.32084 (Simulation time: 0 hr 1 min 6 sec) 
Heartbeat CPU  0 instructions:   63000000 cycles:   27201105 heartbeat IPC: 2.05468 cumulative IPC: 2.31608 (Simulation time: 0 hr 1 min 7 sec) 
Heartbeat CPU  0 instructions:   64000000 cycles:   27602101 heartbeat IPC: 2.49379 cumulative IPC: 2.31866 (Simulation time: 0 hr 1 min 9 sec) 
Heartbeat CPU  0 instructions:   65000000 cycles:   27969177 heartbeat IPC: 2.72423 cumulative IPC: 2.32399 (Simulation time: 0 hr 1 min 10 sec) 
Heartbeat CPU  0 instructions:   66000001 cycles:   28394008 heartbeat IPC: 2.35388 cumulative IPC: 2.32443 (Simulation time: 0 hr 1 min 11 sec) 
Heartbeat CPU  0 instructions:   67000003 cycles:   28853340 heartbeat IPC: 2.17708 cumulative IPC: 2.32209 (Simulation time: 0 hr 1 min 12 sec) 
Heartbeat CPU  0 instructions:   68000000 cycles:   29307077 heartbeat IPC: 2.20391 cumulative IPC: 2.32026 (Simulation time: 0 hr 1 min 13 sec) 
Heartbeat CPU  0 instructions:   69000001 cycles:   29793712 heartbeat IPC: 2.05493 cumulative IPC: 2.31592 (Simulation time: 0 hr 1 min 14 sec) 
Heartbeat CPU  0 instructions:   70000001 cycles:   30201777 heartbeat IPC: 2.45059 cumulative IPC: 2.31774 (Simulation time: 0 hr 1 min 15 sec) 
Heartbeat CPU  0 instructions:   71000001 cycles:   30568983 heartbeat IPC: 2.72327 cumulative IPC: 2.32262 (Simulation time: 0 hr 1 min 16 sec) 
Heartbeat CPU  0 instructions:   72000000 cycles:   30984357 heartbeat IPC: 2.40747 cumulative IPC: 2.32375 (Simulation time: 0 hr 1 min 17 sec) 
Heartbeat CPU  0 instructions:   73000000 cycles:   31440881 heartbeat IPC: 2.19047 cumulative IPC: 2.32182 (Simulation time: 0 hr 1 min 18 sec) 
Heartbeat CPU  0 instructions:   74000002 cycles:   31895971 heartbeat IPC: 2.19737 cumulative IPC: 2.32004 (Simulation time: 0 hr 1 min 19 sec) 
Heartbeat CPU  0 instructions:   75000002 cycles:   32384050 heartbeat IPC: 2.04885 cumulative IPC: 2.31595 (Simulation time: 0 hr 1 min 20 sec) 
Heartbeat CPU  0 instructions:   76000000 cycles:   32801465 heartbeat IPC: 2.39569 cumulative IPC: 2.31697 (Simulation time: 0 hr 1 min 21 sec) 
Heartbeat CPU  0 instructions:   77000003 cycles:   33168649 heartbeat IPC: 2.72344 cumulative IPC: 2.32147 (Simulation time: 0 hr 1 min 23 sec) 
Heartbeat CPU  0 instructions:   78000002 cycles:   33576565 heartbeat IPC: 2.45148 cumulative IPC: 2.32305 (Simulation time: 0 hr 1 min 24 sec) 
Heartbeat CPU  0 instructions:   79000000 cycles:   34031481 heartbeat IPC: 2.19820 cumulative IPC: 2.32138 (Simulation time: 0 hr 1 min 25 sec) 
Heartbeat CPU  0 instructions:   80000000 cycles:   34488165 heartbeat IPC: 2.18970 cumulative IPC: 2.31964 (Simulation time: 0 hr 1 min 26 sec) 
Heartbeat CPU  0 instructions:   81000001 cycles:   34946877 heartbeat IPC: 2.18002 cumulative IPC: 2.31780 (Simulation time: 0 hr 1 min 27 sec) 
Heartbeat CPU  0 instructions:   82000001 cycles:   35432446 heartbeat IPC: 2.05944 cumulative IPC: 2.31426 (Simulation time: 0 hr 1 min 28 sec) 
Heartbeat CPU  0 instructions:   83000001 cycles:   35803472 heartbeat IPC: 2.69523 cumulative IPC: 2.31821 (Simulation time: 0 hr 1 min 29 sec) 
Heartbeat CPU  0 instructions:   84000000 cycles:   36171415 heartbeat IPC: 2.71781 cumulative IPC: 2.32228 (Simulation time: 0 hr 1 min 30 sec) 
Heartbeat CPU  0 instructions:   85000003 cycles:   36626671 heartbeat IPC: 2.19657 cumulative IPC: 2.32071 (Simulation time: 0 hr 1 min 31 sec) 
Heartbeat CPU  0 instructions:   86000001 cycles:   37082037 heartbeat IPC: 2.19603 cumulative IPC: 2.31918 (Simulation time: 0 hr 1 min 32 sec) 
Heartbeat CPU  0 instructions:   87000003 cycles:   37538908 heartbeat IPC: 2.18881 cumulative IPC: 2.31760 (Simulation time: 0 hr 1 min 33 sec) 
Heartbeat CPU  0 instructions:   88000000 cycles:   38028028 heartbeat IPC: 2.04448 cumulative IPC: 2.31408 (Simulation time: 0 hr 1 min 34 sec) 
Heartbeat CPU  0 instructions:   89000002 cycles:   38430133 heartbeat IPC: 2.48692 cumulative IPC: 2.31589 (Simulation time: 0 hr 1 min 35 sec) 
Heartbeat CPU  0 instructions:   90000002 cycles:   38797291 heartbeat IPC: 2.72362 cumulative IPC: 2.31975 (Simulation time: 0 hr 1 min 37 sec) 
Heartbeat CPU  0 instructions:   91000002 cycles:   39217896 heartbeat IPC: 2.37753 cumulative IPC: 2.32037 (Simulation time: 0 hr 1 min 38 sec) 
Heartbeat CPU  0 instructions:   92000000 cycles:   39671097 heartbeat IPC: 2.20652 cumulative IPC: 2.31907 (Simulation time: 0 hr 1 min 39 sec) 
Heartbeat CPU  0 instructions:   93000002 cycles:   40127280 heartbeat IPC: 2.19211 cumulative IPC: 2.31763 (Simulation time: 0 hr 1 min 40 sec) 
Heartbeat CPU  0 instructions:   94000001 cycles:   40614948 heartbeat IPC: 2.05057 cumulative IPC: 2.31442 (Simulation time: 0 hr 1 min 41 sec) 
Heartbeat CPU  0 instructions:   95000003 cycles:   40986608 heartbeat IPC: 2.69064 cumulative IPC: 2.31783 (Simulation time: 0 hr 1 min 42 sec) 
Heartbeat CPU  0 instructions:   96000000 cycles:   41353689 heartbeat IPC: 2.72419 cumulative IPC: 2.32144 (Simulation time: 0 hr 1 min 43 sec) 
Heartbeat CPU  0 instructions:   97000001 cycles:   41799398 heartbeat IPC: 2.24362 cumulative IPC: 2.32061 (Simulation time: 0 hr 1 min 44 sec) 
Heartbeat CPU  0 instructions:   98000002 cycles:   42255537 heartbeat IPC: 2.19232 cumulative IPC: 2.31922 (Simulation time: 0 hr 1 min 45 sec) 
Heartbeat CPU  0 instructions:   99000003 cycles:   42741201 heartbeat IPC: 2.05904 cumulative IPC: 2.31627 (Simulation time: 0 hr 1 min 46 sec) 
Heartbeat CPU  0 instructions:  100000000 cycles:   43284759 heartbeat IPC: 1.83972 cumulative IPC: 2.31028 (Simulation time: 0 hr 1 min 47 sec) 

Warmup complete CPU  0 instructions:  100000001 cycles:   43284760 (Simulation time: 0 hr 1 min 47 sec) 

Heartbeat CPU  0 instructions:  101000001 cycles:   44206224 heartbeat IPC: 1.08523 cumulative IPC: 1.08523 (Simulation time: 0 hr 1 min 49 sec) 
Heartbeat CPU  0 instructions:  102000002 cycles:   45014799 heartbeat IPC: 1.23674 cumulative IPC: 1.15604 (Simulation time: 0 hr 1 min 50 sec) 
Heartbeat CPU  0 instructions:  103000000 cycles:   45887830 heartbeat IPC: 1.14543 cumulative IPC: 1.15248 (Simulation time: 0 hr 1 min 51 sec) 
Heartbeat CPU  0 instructions:  104000000 cycles:   46890916 heartbeat IPC: 0.99692 cumulative IPC: 1.10921 (Simulation time: 0 hr 1 min 53 sec) 
Heartbeat CPU  0 instructions:  105000000 cycles:   47858257 heartbeat IPC: 1.03376 cumulative IPC: 1.09326 (Simulation time: 0 hr 1 min 54 sec) 
Heartbeat CPU  0 instructions:  106000003 cycles:   48554081 heartbeat IPC: 1.43715 cumulative IPC: 1.13867 (Simulation time: 0 hr 1 min 55 sec) 
Heartbeat CPU  0 instructions:  107000000 cycles:   49240600 heartbeat IPC: 1.45662 cumulative IPC: 1.17532 (Simulation time: 0 hr 1 min 57 sec) 
Heartbeat CPU  0 instructions:  108000000 cycles:   50171417 heartbeat IPC: 1.07433 cumulative IPC: 1.16167 (Simulation time: 0 hr 1 min 58 sec) 
Heartbeat CPU  0 instructions:  109000000 cycles:   51155827 heartbeat IPC: 1.01584 cumulative IPC: 1.14343 (Simulation time: 0 hr 1 min 59 sec) 
Heartbeat CPU  0 instructions:  110000001 cycles:   51985043 heartbeat IPC: 1.20596 cumulative IPC: 1.14939 (Simulation time: 0 hr 2 min 1 sec) 
Heartbeat CPU  0 instructions:  111000001 cycles:   52655733 heartbeat IPC: 1.49100 cumulative IPC: 1.17384 (Simulation time: 0 hr 2 min 2 sec) 
Heartbeat CPU  0 instructions:  112000000 cycles:   53453132 heartbeat IPC: 1.25408 cumulative IPC: 1.18013 (Simulation time: 0 hr 2 min 3 sec) 
Heartbeat CPU  0 instructions:  113000003 cycles:   54415542 heartbeat IPC: 1.03906 cumulative IPC: 1.16793 (Simulation time: 0 hr 2 min 4 sec) 
Heartbeat CPU  0 instructions:  114000001 cycles:   55359198 heartbeat IPC: 1.05971 cumulative IPC: 1.15947 (Simulation time: 0 hr 2 min 6 sec) 
Heartbeat CPU  0 instructions:  115000000 cycles:   56158507 heartbeat IPC: 1.25108 cumulative IPC: 1.16516 (Simulation time: 0 hr 2 min 7 sec) 
Heartbeat CPU  0 instructions:  116000000 cycles:   56769560 heartbeat IPC: 1.63652 cumulative IPC: 1.18652 (Simulation time: 0 hr 2 min 8 sec) 
Heartbeat CPU  0 instructions:  117000000 cycles:   57659778 heartbeat IPC: 1.12332 cumulative IPC: 1.18261 (Simulation time: 0 hr 2 min 10 sec) 
Heartbeat CPU  0 instructions:  118000003 cycles:   58593309 heartbeat IPC: 1.07120 cumulative IPC: 1.17581 (Simulation time: 0 hr 2 min 11 sec) 
Heartbeat CPU  0 instructions:  119000002 cycles:   59537041 heartbeat IPC: 1.05962 cumulative IPC: 1.16907 (Simulation time: 0 hr 2 min 12 sec) 
Heartbeat CPU  0 instructions:  120000000 cycles:   60654617 heartbeat IPC: 0.89479 cumulative IPC: 1.15142 (Simulation time: 0 hr 2 min 14 sec) 
Heartbeat CPU  0 instructions:  121000000 cycles:   61551264 heartbeat IPC: 1.11527 cumulative IPC: 1.14965 (Simulation time: 0 hr 2 min 15 sec) 
Heartbeat CPU  0 instructions:  122000001 cycles:   62218326 heartbeat IPC: 1.49911 cumulative IPC: 1.16196 (Simulation time: 0 hr 2 min 16 sec) 
Heartbeat CPU  0 instructions:  123000001 cycles:   62983046 heartbeat IPC: 1.30767 cumulative IPC: 1.16761 (Simulation time: 0 hr 2 min 17 sec) 
Heartbeat CPU  0 instructions:  124000000 cycles:   63950105 heartbeat IPC: 1.03406 cumulative IPC: 1.16136 (Simulation time: 0 hr 2 min 19 sec) 
Heartbeat CPU  0 instructions:  125000001 cycles:   64890104 heartbeat IPC: 1.06383 cumulative IPC: 1.15712 (Simulation time: 0 hr 2 min 20 sec) 
Heartbeat CPU  0 instructions:  126000003 cycles:   65849615 heartbeat IPC: 1.04220 cumulative IPC: 1.15223 (Simulation time: 0 hr 2 min 21 sec) 
Heartbeat CPU  0 instructions:  127000000 cycles:   66906565 heartbeat IPC: 0.94612 cumulative IPC: 1.14301 (Simulation time: 0 hr 2 min 23 sec) 
Heartbeat CPU  0 instructions:  128000000 cycles:   67580178 heartbeat IPC: 1.48453 cumulative IPC: 1.15248 (Simulation time: 0 hr 2 min 24 sec) 
Heartbeat CPU  0 instructions:  129000000 cycles:   68266862 heartbeat IPC: 1.45627 cumulative IPC: 1.16083 (Simulation time: 0 hr 2 min 25 sec) 
Heartbeat CPU  0 instructions:  130000000 cycles:   69243965 heartbeat IPC: 1.02343 cumulative IPC: 1.15566 (Simulation time: 0 hr 2 min 27 sec) 
Heartbeat CPU  0 instructions:  131000002 cycles:   70192107 heartbeat IPC: 1.05470 cumulative IPC: 1.15210 (Simulation time: 0 hr 2 min 28 sec) 
Heartbeat CPU  0 instructions:  132000000 cycles:   71250188 heartbeat IPC: 0.94511 cumulative IPC: 1.14427 (Simulation time: 0 hr 2 min 29 sec) 
Heartbeat CPU  0 instructions:  133000002 cycles:   72043418 heartbeat IPC: 1.26067 cumulative IPC: 1.14748 (Simulation time: 0 hr 2 min 30 sec) 
Heartbeat CPU  0 instructions:  134000002 cycles:   72708117 heartbeat IPC: 1.50444 cumulative IPC: 1.15554 (Simulation time: 0 hr 2 min 32 sec) 
Heartbeat CPU  0 instructions:  135000001 cycles:   73518767 heartbeat IPC: 1.23358 cumulative IPC: 1.15764 (Simulation time: 0 hr 2 min 33 sec) 
Heartbeat CPU  0 instructions:  136000000 cycles:   74479280 heartbeat IPC: 1.04111 cumulative IPC: 1.15405 (Simulation time: 0 hr 2 min 34 sec) 
Heartbeat CPU  0 instructions:  137000002 cycles:   75505008 heartbeat IPC: 0.97492 cumulative IPC: 1.14835 (Simulation time: 0 hr 2 min 36 sec) 
Heartbeat CPU  0 instructions:  138000002 cycles:   76251366 heartbeat IPC: 1.33984 cumulative IPC: 1.15268 (Simulation time: 0 hr 2 min 37 sec) 
Heartbeat CPU  0 instructions:  139000002 cycles:   76897765 heartbeat IPC: 1.54703 cumulative IPC: 1.16027 (Simulation time: 0 hr 2 min 38 sec) 
Heartbeat CPU  0 instructions:  140000000 cycles:   77733205 heartbeat IPC: 1.19697 cumulative IPC: 1.16116 (Simulation time: 0 hr 2 min 40 sec) 
Heartbeat CPU  0 instructions:  141000000 cycles:   78688189 heartbeat IPC: 1.04714 cumulative IPC: 1.15808 (Simulation time: 0 hr 2 min 41 sec) 
Heartbeat CPU  0 instructions:  142000001 cycles:   79695662 heartbeat IPC: 0.99258 cumulative IPC: 1.15350 (Simulation time: 0 hr 2 min 42 sec) 
Heartbeat CPU  0 instructions:  143000003 cycles:   80382140 heartbeat IPC: 1.45671 cumulative IPC: 1.15911 (Simulation time: 0 hr 2 min 43 sec) 
Heartbeat CPU  0 instructions:  144000000 cycles:   81001663 heartbeat IPC: 1.61414 cumulative IPC: 1.16659 (Simulation time: 0 hr 2 min 45 sec) 
Heartbeat CPU  0 instructions:  145000002 cycles:   81913987 heartbeat IPC: 1.09610 cumulative IPC: 1.16492 (Simulation time: 0 hr 2 min 46 sec) 
Heartbeat CPU  0 instructions:  146000002 cycles:   82891318 heartbeat IPC: 1.02319 cumulative IPC: 1.16142 (Simulation time: 0 hr 2 min 47 sec) 
Heartbeat CPU  0 instructions:  147000002 cycles:   83808394 heartbeat IPC: 1.09042 cumulative IPC: 1.15982 (Simulation time: 0 hr 2 min 49 sec) 
Heartbeat CPU  0 instructions:  148000000 cycles:   84442901 heartbeat IPC: 1.57602 cumulative IPC: 1.16623 (Simulation time: 0 hr 2 min 50 sec) 
Heartbeat CPU  0 instructions:  149000003 cycles:   85121157 heartbeat IPC: 1.47437 cumulative IPC: 1.17123 (Simulation time: 0 hr 2 min 51 sec) 
Heartbeat CPU  0 instructions:  150000003 cycles:   86081480 heartbeat IPC: 1.04132 cumulative IPC: 1.16831 (Simulation time: 0 hr 2 min 52 sec) 
Heartbeat CPU  0 instructions:  151000002 cycles:   87152908 heartbeat IPC: 0.93333 cumulative IPC: 1.16257 (Simulation time: 0 hr 2 min 54 sec) 
Heartbeat CPU  0 instructions:  152000000 cycles:   88042087 heartbeat IPC: 1.12463 cumulative IPC: 1.16182 (Simulation time: 0 hr 2 min 55 sec) 
Heartbeat CPU  0 instructions:  153000001 cycles:   88806544 heartbeat IPC: 1.30812 cumulative IPC: 1.16428 (Simulation time: 0 hr 2 min 56 sec) 
Heartbeat CPU  0 instructions:  154000002 cycles:   89458394 heartbeat IPC: 1.53410 cumulative IPC: 1.16950 (Simulation time: 0 hr 2 min 58 sec) 
Heartbeat CPU  0 instructions:  155000003 cycles:   90249926 heartbeat IPC: 1.26337 cumulative IPC: 1.17108 (Simulation time: 0 hr 2 min 59 sec) 
Heartbeat CPU  0 instructions:  156000000 cycles:   91212202 heartbeat IPC: 1.03920 cumulative IPC: 1.16843 (Simulation time: 0 hr 3 min 0 sec) 
Heartbeat CPU  0 instructions:  157000003 cycles:   92201685 heartbeat IPC: 1.01063 cumulative IPC: 1.16524 (Simulation time: 0 hr 3 min 2 sec) 
Heartbeat CPU  0 instructions:  158000003 cycles:   92861050 heartbeat IPC: 1.51661 cumulative IPC: 1.16991 (Simulation time: 0 hr 3 min 3 sec) 
Heartbeat CPU  0 instructions:  159000000 cycles:   93461329 heartbeat IPC: 1.66589 cumulative IPC: 1.17585 (Simulation time: 0 hr 3 min 4 sec) 
Heartbeat CPU  0 instructions:  160000000 cycles:   94426765 heartbeat IPC: 1.03580 cumulative IPC: 1.17320 (Simulation time: 0 hr 3 min 5 sec) 
Heartbeat CPU  0 instructions:  161000000 cycles:   95438358 heartbeat IPC: 0.98854 cumulative IPC: 1.16962 (Simulation time: 0 hr 3 min 7 sec) 
Heartbeat CPU  0 instructions:  162000003 cycles:   96203784 heartbeat IPC: 1.30647 cumulative IPC: 1.17160 (Simulation time: 0 hr 3 min 8 sec) 
Heartbeat CPU  0 instructions:  163000002 cycles:   96837169 heartbeat IPC: 1.57882 cumulative IPC: 1.17642 (Simulation time: 0 hr 3 min 9 sec) 
Heartbeat CPU  0 instructions:  164000000 cycles:   97597893 heartbeat IPC: 1.31453 cumulative IPC: 1.17835 (Simulation time: 0 hr 3 min 10 sec) 
Heartbeat CPU  0 instructions:  165000000 cycles:   98557489 heartbeat IPC: 1.04211 cumulative IPC: 1.17599 (Simulation time: 0 hr 3 min 12 sec) 
Heartbeat CPU  0 instructions:  166000002 cycles:   99538066 heartbeat IPC: 1.01981 cumulative IPC: 1.17326 (Simulation time: 0 hr 3 min 13 sec) 
Heartbeat CPU  0 instructions:  167000001 cycles:  100197281 heartbeat IPC: 1.51695 cumulative IPC: 1.17725 (Simulation time: 0 hr 3 min 14 sec) 
Heartbeat CPU  0 instructions:  168000000 cycles:  100797339 heartbeat IPC: 1.66650 cumulative IPC: 1.18235 (Simulation time: 0 hr 3 min 16 sec) 
Heartbeat CPU  0 instructions:  169000000 cycles:  101751047 heartbeat IPC: 1.04854 cumulative IPC: 1.18017 (Simulation time: 0 hr 3 min 17 sec) 
Heartbeat CPU  0 instructions:  170000000 cycles:  102768596 heartbeat IPC: 0.98275 cumulative IPC: 1.17679 (Simulation time: 0 hr 3 min 18 sec) 
Heartbeat CPU  0 instructions:  171000003 cycles:  103553970 heartbeat IPC: 1.27328 cumulative IPC: 1.17805 (Simulation time: 0 hr 3 min 19 sec) 
Heartbeat CPU  0 instructions:  172000000 cycles:  104199771 heartbeat IPC: 1.54846 cumulative IPC: 1.18197 (Simulation time: 0 hr 3 min 21 sec) 
Heartbeat CPU  0 instructions:  173000001 cycles:  104953449 heartbeat IPC: 1.32683 cumulative IPC: 1.18374 (Simulation time: 0 hr 3 min 22 sec) 
Heartbeat CPU  0 instructions:  174000000 cycles:  105917907 heartbeat IPC: 1.03685 cumulative IPC: 1.18148 (Simulation time: 0 hr 3 min 23 sec) 
Heartbeat CPU  0 instructions:  175000002 cycles:  106920479 heartbeat IPC: 0.99744 cumulative IPC: 1.17858 (Simulation time: 0 hr 3 min 25 sec) 
Heartbeat CPU  0 instructions:  176000000 cycles:  107586024 heartbeat IPC: 1.50252 cumulative IPC: 1.18194 (Simulation time: 0 hr 3 min 26 sec) 
Heartbeat CPU  0 instructions:  177000000 cycles:  108184331 heartbeat IPC: 1.67138 cumulative IPC: 1.18645 (Simulation time: 0 hr 3 min 27 sec) 
Heartbeat CPU  0 instructions:  178000003 cycles:  109123244 heartbeat IPC: 1.06506 cumulative IPC: 1.18472 (Simulation time: 0 hr 3 min 28 sec) 
Heartbeat CPU  0 instructions:  179000000 cycles:  110150058 heartbeat IPC: 0.97388 cumulative IPC: 1.18148 (Simulation time: 0 hr 3 min 30 sec) 
Heartbeat CPU  0 instructions:  180000000 cycles:  110937426 heartbeat IPC: 1.27005 cumulative IPC: 1.18251 (Simulation time: 0 hr 3 min 31 sec) 
Heartbeat CPU  0 instructions:  181000002 cycles:  111579261 heartbeat IPC: 1.55804 cumulative IPC: 1.18604 (Simulation time: 0 hr 3 min 32 sec) 
Heartbeat CPU  0 instructions:  182000002 cycles:  112327200 heartbeat IPC: 1.33701 cumulative IPC: 1.18768 (Simulation time: 0 hr 3 min 34 sec) 
Heartbeat CPU  0 instructions:  183000002 cycles:  113272749 heartbeat IPC: 1.05759 cumulative IPC: 1.18592 (Simulation time: 0 hr 3 min 35 sec) 
Heartbeat CPU  0 instructions:  184000000 cycles:  114274989 heartbeat IPC: 0.99776 cumulative IPC: 1.18326 (Simulation time: 0 hr 3 min 36 sec) 
Heartbeat CPU  0 instructions:  185000003 cycles:  114939895 heartbeat IPC: 1.50398 cumulative IPC: 1.18624 (Simulation time: 0 hr 3 min 37 sec) 
Heartbeat CPU  0 instructions:  186000002 cycles:  115541645 heartbeat IPC: 1.66182 cumulative IPC: 1.19020 (Simulation time: 0 hr 3 min 39 sec) 
Heartbeat CPU  0 instructions:  187000002 cycles:  116484226 heartbeat IPC: 1.06092 cumulative IPC: 1.18853 (Simulation time: 0 hr 3 min 40 sec) 
Heartbeat CPU  0 instructions:  188000000 cycles:  117508999 heartbeat IPC: 0.97582 cumulative IPC: 1.18560 (Simulation time: 0 hr 3 min 41 sec) 
Heartbeat CPU  0 instructions:  189000003 cycles:  118306746 heartbeat IPC: 1.25353 cumulative IPC: 1.18632 (Simulation time: 0 hr 3 min 42 sec) 
Heartbeat CPU  0 instructions:  190000000 cycles:  118945048 heartbeat IPC: 1.56665 cumulative IPC: 1.18953 (Simulation time: 0 hr 3 min 44 sec) 
Heartbeat CPU  0 instructions:  191000001 cycles:  119692163 heartbeat IPC: 1.33848 cumulative IPC: 1.19098 (Simulation time: 0 hr 3 min 45 sec) 
Heartbeat CPU  0 instructions:  192000000 cycles:  120648712 heartbeat IPC: 1.04542 cumulative IPC: 1.18918 (Simulation time: 0 hr 3 min 46 sec) 
Heartbeat CPU  0 instructions:  193000002 cycles:  121659035 heartbeat IPC: 0.98978 cumulative IPC: 1.18661 (Simulation time: 0 hr 3 min 48 sec) 
Heartbeat CPU  0 instructions:  194000002 cycles:  122329705 heartbeat IPC: 1.49105 cumulative IPC: 1.18920 (Simulation time: 0 hr 3 min 49 sec) 
Heartbeat CPU  0 instructions:  195000001 cycles:  122934802 heartbeat IPC: 1.65263 cumulative IPC: 1.19272 (Simulation time: 0 hr 3 min 50 sec) 
Heartbeat CPU  0 instructions:  196000000 cycles:  123870263 heartbeat IPC: 1.06899 cumulative IPC: 1.19128 (Simulation time: 0 hr 3 min 51 sec) 
Heartbeat CPU  0 instructions:  197000002 cycles:  124909883 heartbeat IPC: 0.96189 cumulative IPC: 1.18836 (Simulation time: 0 hr 3 min 53 sec) 
Heartbeat CPU  0 instructions:  198000000 cycles:  125699277 heartbeat IPC: 1.26679 cumulative IPC: 1.18911 (Simulation time: 0 hr 3 min 54 sec) 
Heartbeat CPU  0 instructions:  199000003 cycles:  126340854 heartbeat IPC: 1.55866 cumulative IPC: 1.19197 (Simulation time: 0 hr 3 min 55 sec) 
Heartbeat CPU  0 instructions:  200000000 cycles:  127083771 heartbeat IPC: 1.34604 cumulative IPC: 1.19333 (Simulation time: 0 hr 3 min 57 sec) 
Finished CPU 0 instructions: 100000003 cycles: 83799019 cumulative IPC: 1.19333 (Simulation time: 0 hr 3 min 57 sec) 

ChampSim completed all CPUs

[ROI Statistics]
Core_0_instructions 100000003
Core_0_cycles 83799019
Core_0_IPC 1.19333

Core_0_branch_prediction_accuracy 97.76309
Core_0_branch_MPKI 1.93474
Core_0_average_ROB_occupancy_at_mispredict 143.55425

Core_0_L1D_total_access 28493272
Core_0_L1D_total_hit 26831941
Core_0_L1D_total_miss 1661331
Core_0_L1D_loads 14627797
Core_0_L1D_load_hit 14173236
Core_0_L1D_load_miss 454561
Core_0_L1D_RFOs 1320455
Core_0_L1D_RFO_hit 1231873
Core_0_L1D_RFO_miss 88582
Core_0_L1D_prefetches 12545020
Core_0_L1D_prefetch_hit 11426832
Core_0_L1D_prefetch_miss 1118188
Core_0_L1D_writebacks 0
Core_0_L1D_writeback_hit 0
Core_0_L1D_writeback_miss 0
Core_0_L1D_prefetch_requested 39101492
Core_0_L1D_prefetch_issued 38678610
Core_0_L1D_prefetch_useful 1923515
Core_0_L1D_prefetch_useless 522628
Core_0_L1D_prefetch_late 137401
Core_0_L1D_average_miss_latency 6570122.19311

Core_0_L1I_total_access 24307611
Core_0_L1I_total_hit 24307310
Core_0_L1I_total_miss 301
Core_0_L1I_loads 24307611
Core_0_L1I_load_hit 24307310
Core_0_L1I_load_miss 301
Core_0_L1I_RFOs 0
Core_0_L1I_RFO_hit 0
Core_0_L1I_RFO_miss 0
Core_0_L1I_prefetches 0
Core_0_L1I_prefetch_hit 0
Core_0_L1I_prefetch_miss 0
Core_0_L1I_writebacks 0
Core_0_L1I_writeback_hit 0
Core_0_L1I_writeback_miss 0
Core_0_L1I_prefetch_requested 0
Core_0_L1I_prefetch_issued 0
Core_0_L1I_prefetch_useful 0
Core_0_L1I_prefetch_useless 0
Core_0_L1I_prefetch_late 0
Core_0_L1I_average_miss_latency 154.66445

Core_0_L2C_total_access 2612635
Core_0_L2C_total_hit 1252713
Core_0_L2C_total_miss 1359922
Core_0_L2C_loads 323418
Core_0_L2C_load_hit 188166
Core_0_L2C_load_miss 135252
Core_0_L2C_RFOs 88560
Core_0_L2C_RFO_hit 9303
Core_0_L2C_RFO_miss 79257
Core_0_L2C_prefetches 2088732
Core_0_L2C_prefetch_hit 943608
Core_0_L2C_prefetch_miss 1145124
Core_0_L2C_writebacks 111925
Core_0_L2C_writeback_hit 111636
Core_0_L2C_writeback_miss 289
Core_0_L2C_prefetch_requested 2917037
Core_0_L2C_prefetch_issued 2866292
Core_0_L2C_prefetch_useful 89742
Core_0_L2C_prefetch_useless 2240951
Core_0_L2C_prefetch_late 4257
Core_0_L2C_average_miss_latency 102.13210

Core_0_LLC_total_access 2044604
Core_0_LLC_total_hit 1037836
Core_0_LLC_total_miss 1006768
Core_0_LLC_loads 131289
Core_0_LLC_load_hit 59369
Core_0_LLC_load_miss 71920
Core_0_LLC_RFOs 79257
Core_0_LLC_RFO_hit 27816
Core_0_LLC_RFO_miss 51441
Core_0_LLC_prefetches 1729067
Core_0_LLC_prefetch_hit 894373
Core_0_LLC_prefetch_miss 834694
Core_0_LLC_writebacks 104991
Core_0_LLC_writeback_hit 56278
Core_0_LLC_writeback_miss 48713
Core_0_LLC_prefetch_requested 2338783
Core_0_LLC_prefetch_issued 2301661
Core_0_LLC_prefetch_useful 44419
Core_0_LLC_prefetch_useless 1978189
Core_0_LLC_prefetch_late 414
Core_0_LLC_average_miss_latency 149.22168

Core_0_major_page_fault 0
Core_0_minor_page_fault 3151

CPU 0 L1D next line prefetcher final stats
CPU 0 L2C next line prefetcher final stats
LLC Next Line Prefetcher Final Stats: none
Channel_0_RQ_row_buffer_hit 550765
Channel_0_RQ_row_buffer_miss 407201
Channel_0_WQ_row_buffer_hit 31628
Channel_0_WQ_row_buffer_miss 45608
Channel_0_WQ_full 0
Channel_0_dbus_congested 287902

avg_congested_cycle 8
