*************************************************
   ChampSim Multicore Out-of-Order Simulator
   Last compiled: Dec 22 2023 14:46:09
*************************************************

trace_0 ./test_trace/482.sphinx3-1100B.champsimtrace.xz
CPU 0 L2C next line prefetcher
LLC Next Line Prefetcher
warmup_instructions 100000000
simulation_instructions 100000000
champsim_seed 260

num_cpus 1
cpu_freq 4000
dram_io_freq 2400
page_size 4096
block_size 64
max_read_per_cycle 8
max_fill_per_cycle 1
dram_channels 1
dram_ranks 1
dram_banks 8
dram_rows 65536
dram_columns 128
dram_row_size 8
dram_size 4096
dram_pages 1048576

fetch_width 6
decode_width 6
exec_width 4
lq_width 2
sq_width 2
retire_width 4
scheduler_size 128
branch_mispredict_penalty 20
rob_size 256
lq_size 72
sq_size 56
num_instr_destinations_sparc 4
num_instr_destinations 2
num_instr_sources 4

itlb_set 16
itlb_way 8
itlb_rq_size 16
itlb_wq_size 16
itlb_pq_size 0
itlb_mshr_size 8
itlb_latency 1

dtlb_set 16
dtlb_way 4
dtlb_rq_size 16
dtlb_wq_size 16
dtlb_pq_size 0
dtlb_mshr_size 8
dtlb_latency 1

stlb_set 128
stlb_way 12
stlb_rq_size 32
stlb_wq_size 32
stlb_pq_size 0
stlb_mshr_size 16
stlb_latency 8

l1i_size 32
l1i_set 64
l1i_way 8
l1i_rq_size 64
l1i_wq_size 64
l1i_pq_size 8
l1i_mshr_size 8
l1i_latency 1

l1d_size 32
l1d_set 64
l1d_way 8
l1d_rq_size 64
l1d_wq_size 64
l1d_pq_size 8
l1d_mshr_size 16
l1d_latency 4

l2c_size 512
l2c_set 1024
l2c_way 8
l2c_rq_size 32
l2c_wq_size 32
l2c_pq_size 16
l2c_mshr_size 32
l2c_latency 10

llc_size 2048
llc_set 2048
llc_way 16
llc_rq_size 32
llc_wq_size 32
llc_pq_size 32
llc_mshr_size 64
llc_latency 20

dram_channel_width 8
dram_wq_size 64
dram_rq_size 64
tRP 15
tRCD 15
tCAS 12.5
dram_dbus_turn_around_time 30
dram_write_high_wm 56
dram_write_low_wm 48
min_dram_writes_per_switch 16
dram_mtps 2400
dram_dbus_return_time 13


Heartbeat CPU  0 instructions:    1000001 cycles:     367702 heartbeat IPC: 2.71960 cumulative IPC: 2.71960 (Simulation time: 0 hr 0 min 1 sec) 
Heartbeat CPU  0 instructions:    2000003 cycles:     795132 heartbeat IPC: 2.33957 cumulative IPC: 2.51531 (Simulation time: 0 hr 0 min 2 sec) 
Heartbeat CPU  0 instructions:    3000001 cycles:    1252917 heartbeat IPC: 2.18443 cumulative IPC: 2.39441 (Simulation time: 0 hr 0 min 3 sec) 
Heartbeat CPU  0 instructions:    4000000 cycles:    1735514 heartbeat IPC: 2.07212 cumulative IPC: 2.30479 (Simulation time: 0 hr 0 min 5 sec) 
Heartbeat CPU  0 instructions:    5000000 cycles:    2177795 heartbeat IPC: 2.26101 cumulative IPC: 2.29590 (Simulation time: 0 hr 0 min 6 sec) 
Heartbeat CPU  0 instructions:    6000001 cycles:    2545231 heartbeat IPC: 2.72157 cumulative IPC: 2.35735 (Simulation time: 0 hr 0 min 7 sec) 
Heartbeat CPU  0 instructions:    7000000 cycles:    2936274 heartbeat IPC: 2.55726 cumulative IPC: 2.38397 (Simulation time: 0 hr 0 min 8 sec) 
Heartbeat CPU  0 instructions:    8000000 cycles:    3395089 heartbeat IPC: 2.17953 cumulative IPC: 2.35634 (Simulation time: 0 hr 0 min 9 sec) 
Heartbeat CPU  0 instructions:    9000000 cycles:    3853299 heartbeat IPC: 2.18241 cumulative IPC: 2.33566 (Simulation time: 0 hr 0 min 10 sec) 
Heartbeat CPU  0 instructions:   10000000 cycles:    4343427 heartbeat IPC: 2.04028 cumulative IPC: 2.30233 (Simulation time: 0 hr 0 min 11 sec) 
Heartbeat CPU  0 instructions:   11000001 cycles:    4715732 heartbeat IPC: 2.68597 cumulative IPC: 2.33262 (Simulation time: 0 hr 0 min 12 sec) 
Heartbeat CPU  0 instructions:   12000000 cycles:    5082915 heartbeat IPC: 2.72343 cumulative IPC: 2.36085 (Simulation time: 0 hr 0 min 13 sec) 
Heartbeat CPU  0 instructions:   13000001 cycles:    5532253 heartbeat IPC: 2.22550 cumulative IPC: 2.34986 (Simulation time: 0 hr 0 min 14 sec) 
Heartbeat CPU  0 instructions:   14000000 cycles:    5990532 heartbeat IPC: 2.18207 cumulative IPC: 2.33702 (Simulation time: 0 hr 0 min 15 sec) 
Heartbeat CPU  0 instructions:   15000000 cycles:    6473102 heartbeat IPC: 2.07224 cumulative IPC: 2.31728 (Simulation time: 0 hr 0 min 16 sec) 
Heartbeat CPU  0 instructions:   16000000 cycles:    6883000 heartbeat IPC: 2.43963 cumulative IPC: 2.32457 (Simulation time: 0 hr 0 min 17 sec) 
Heartbeat CPU  0 instructions:   17000003 cycles:    7250270 heartbeat IPC: 2.72280 cumulative IPC: 2.34474 (Simulation time: 0 hr 0 min 19 sec) 
Heartbeat CPU  0 instructions:   18000003 cycles:    7662293 heartbeat IPC: 2.42705 cumulative IPC: 2.34917 (Simulation time: 0 hr 0 min 20 sec) 
Heartbeat CPU  0 instructions:   19000003 cycles:    8120553 heartbeat IPC: 2.18217 cumulative IPC: 2.33974 (Simulation time: 0 hr 0 min 21 sec) 
Heartbeat CPU  0 instructions:   20000000 cycles:    8589176 heartbeat IPC: 2.13391 cumulative IPC: 2.32851 (Simulation time: 0 hr 0 min 22 sec) 
Heartbeat CPU  0 instructions:   21000002 cycles:    9048188 heartbeat IPC: 2.17860 cumulative IPC: 2.32091 (Simulation time: 0 hr 0 min 23 sec) 
Heartbeat CPU  0 instructions:   22000003 cycles:    9415567 heartbeat IPC: 2.72199 cumulative IPC: 2.33656 (Simulation time: 0 hr 0 min 24 sec) 
Heartbeat CPU  0 instructions:   23000001 cycles:    9796165 heartbeat IPC: 2.62744 cumulative IPC: 2.34786 (Simulation time: 0 hr 0 min 25 sec) 
Heartbeat CPU  0 instructions:   24000000 cycles:   10251689 heartbeat IPC: 2.19527 cumulative IPC: 2.34108 (Simulation time: 0 hr 0 min 26 sec) 
Heartbeat CPU  0 instructions:   25000002 cycles:   10707330 heartbeat IPC: 2.19471 cumulative IPC: 2.33485 (Simulation time: 0 hr 0 min 27 sec) 
Heartbeat CPU  0 instructions:   26000002 cycles:   11186109 heartbeat IPC: 2.08865 cumulative IPC: 2.32431 (Simulation time: 0 hr 0 min 28 sec) 
Heartbeat CPU  0 instructions:   27000001 cycles:   11579272 heartbeat IPC: 2.54347 cumulative IPC: 2.33175 (Simulation time: 0 hr 0 min 29 sec) 
Heartbeat CPU  0 instructions:   28000000 cycles:   11946264 heartbeat IPC: 2.72485 cumulative IPC: 2.34383 (Simulation time: 0 hr 0 min 30 sec) 
Heartbeat CPU  0 instructions:   29000001 cycles:   12382745 heartbeat IPC: 2.29105 cumulative IPC: 2.34197 (Simulation time: 0 hr 0 min 32 sec) 
Heartbeat CPU  0 instructions:   30000003 cycles:   12836626 heartbeat IPC: 2.20323 cumulative IPC: 2.33706 (Simulation time: 0 hr 0 min 33 sec) 
Heartbeat CPU  0 instructions:   31000002 cycles:   13290790 heartbeat IPC: 2.20185 cumulative IPC: 2.33244 (Simulation time: 0 hr 0 min 34 sec) 
Heartbeat CPU  0 instructions:   32000000 cycles:   13774115 heartbeat IPC: 2.06900 cumulative IPC: 2.32320 (Simulation time: 0 hr 0 min 35 sec) 
Heartbeat CPU  0 instructions:   33000003 cycles:   14175150 heartbeat IPC: 2.49356 cumulative IPC: 2.32802 (Simulation time: 0 hr 0 min 36 sec) 
Heartbeat CPU  0 instructions:   34000003 cycles:   14542230 heartbeat IPC: 2.72420 cumulative IPC: 2.33802 (Simulation time: 0 hr 0 min 37 sec) 
Heartbeat CPU  0 instructions:   35000000 cycles:   14969398 heartbeat IPC: 2.34099 cumulative IPC: 2.33810 (Simulation time: 0 hr 0 min 38 sec) 
Heartbeat CPU  0 instructions:   36000000 cycles:   15423357 heartbeat IPC: 2.20284 cumulative IPC: 2.33412 (Simulation time: 0 hr 0 min 39 sec) 
Heartbeat CPU  0 instructions:   37000000 cycles:   15877513 heartbeat IPC: 2.20189 cumulative IPC: 2.33034 (Simulation time: 0 hr 0 min 40 sec) 
Heartbeat CPU  0 instructions:   38000003 cycles:   16365514 heartbeat IPC: 2.04918 cumulative IPC: 2.32196 (Simulation time: 0 hr 0 min 41 sec) 
Heartbeat CPU  0 instructions:   39000001 cycles:   16772802 heartbeat IPC: 2.45526 cumulative IPC: 2.32519 (Simulation time: 0 hr 0 min 42 sec) 
Heartbeat CPU  0 instructions:   40000000 cycles:   17140018 heartbeat IPC: 2.72319 cumulative IPC: 2.33372 (Simulation time: 0 hr 0 min 43 sec) 
Heartbeat CPU  0 instructions:   41000003 cycles:   17560232 heartbeat IPC: 2.37975 cumulative IPC: 2.33482 (Simulation time: 0 hr 0 min 44 sec) 
Heartbeat CPU  0 instructions:   42000000 cycles:   18018422 heartbeat IPC: 2.18249 cumulative IPC: 2.33095 (Simulation time: 0 hr 0 min 45 sec) 
Heartbeat CPU  0 instructions:   43000001 cycles:   18474917 heartbeat IPC: 2.19061 cumulative IPC: 2.32748 (Simulation time: 0 hr 0 min 46 sec) 
Heartbeat CPU  0 instructions:   44000000 cycles:   18965382 heartbeat IPC: 2.03888 cumulative IPC: 2.32002 (Simulation time: 0 hr 0 min 47 sec) 
Heartbeat CPU  0 instructions:   45000002 cycles:   19377424 heartbeat IPC: 2.42694 cumulative IPC: 2.32229 (Simulation time: 0 hr 0 min 49 sec) 
Heartbeat CPU  0 instructions:   46000000 cycles:   19744726 heartbeat IPC: 2.72255 cumulative IPC: 2.32974 (Simulation time: 0 hr 0 min 50 sec) 
Heartbeat CPU  0 instructions:   47000002 cycles:   20157965 heartbeat IPC: 2.41991 cumulative IPC: 2.33158 (Simulation time: 0 hr 0 min 51 sec) 
Heartbeat CPU  0 instructions:   48000000 cycles:   20617812 heartbeat IPC: 2.17463 cumulative IPC: 2.32808 (Simulation time: 0 hr 0 min 52 sec) 
Heartbeat CPU  0 instructions:   49000003 cycles:   21074580 heartbeat IPC: 2.18930 cumulative IPC: 2.32508 (Simulation time: 0 hr 0 min 53 sec) 
Heartbeat CPU  0 instructions:   50000003 cycles:   21585367 heartbeat IPC: 1.95776 cumulative IPC: 2.31638 (Simulation time: 0 hr 0 min 54 sec) 
Heartbeat CPU  0 instructions:   51000002 cycles:   22047321 heartbeat IPC: 2.16472 cumulative IPC: 2.31321 (Simulation time: 0 hr 0 min 55 sec) 
Heartbeat CPU  0 instructions:   52000000 cycles:   22420542 heartbeat IPC: 2.67937 cumulative IPC: 2.31930 (Simulation time: 0 hr 0 min 56 sec) 
Heartbeat CPU  0 instructions:   53000001 cycles:   22787867 heartbeat IPC: 2.72239 cumulative IPC: 2.32580 (Simulation time: 0 hr 0 min 57 sec) 
Heartbeat CPU  0 instructions:   54000001 cycles:   23237555 heartbeat IPC: 2.22376 cumulative IPC: 2.32382 (Simulation time: 0 hr 0 min 58 sec) 
Heartbeat CPU  0 instructions:   55000001 cycles:   23691284 heartbeat IPC: 2.20396 cumulative IPC: 2.32153 (Simulation time: 0 hr 0 min 59 sec) 
Heartbeat CPU  0 instructions:   56000000 cycles:   24148529 heartbeat IPC: 2.18701 cumulative IPC: 2.31898 (Simulation time: 0 hr 1 min 0 sec) 
Heartbeat CPU  0 instructions:   57000003 cycles:   24633862 heartbeat IPC: 2.06045 cumulative IPC: 2.31389 (Simulation time: 0 hr 1 min 1 sec) 
Heartbeat CPU  0 instructions:   58000001 cycles:   25027482 heartbeat IPC: 2.54052 cumulative IPC: 2.31745 (Simulation time: 0 hr 1 min 2 sec) 
Heartbeat CPU  0 instructions:   59000001 cycles:   25394654 heartbeat IPC: 2.72352 cumulative IPC: 2.32332 (Simulation time: 0 hr 1 min 4 sec) 
Heartbeat CPU  0 instructions:   60000000 cycles:   25834126 heartbeat IPC: 2.27546 cumulative IPC: 2.32251 (Simulation time: 0 hr 1 min 5 sec) 
Heartbeat CPU  0 instructions:   61000000 cycles:   26290294 heartbeat IPC: 2.19217 cumulative IPC: 2.32025 (Simulation time: 0 hr 1 min 6 sec) 
Heartbeat CPU  0 instructions:   62000000 cycles:   26747934 heartbeat IPC: 2.18512 cumulative IPC: 2.31794 (Simulation time: 0 hr 1 min 7 sec) 
Heartbeat CPU  0 instructions:   63000000 cycles:   27235459 heartbeat IPC: 2.05118 cumulative IPC: 2.31316 (Simulation time: 0 hr 1 min 8 sec) 
Heartbeat CPU  0 instructions:   64000000 cycles:   27637512 heartbeat IPC: 2.48723 cumulative IPC: 2.31569 (Simulation time: 0 hr 1 min 9 sec) 
Heartbeat CPU  0 instructions:   65000000 cycles:   28004839 heartbeat IPC: 2.72237 cumulative IPC: 2.32103 (Simulation time: 0 hr 1 min 10 sec) 
Heartbeat CPU  0 instructions:   66000001 cycles:   28430129 heartbeat IPC: 2.35134 cumulative IPC: 2.32148 (Simulation time: 0 hr 1 min 11 sec) 
Heartbeat CPU  0 instructions:   67000003 cycles:   28890087 heartbeat IPC: 2.17412 cumulative IPC: 2.31913 (Simulation time: 0 hr 1 min 12 sec) 
Heartbeat CPU  0 instructions:   68000000 cycles:   29344396 heartbeat IPC: 2.20114 cumulative IPC: 2.31731 (Simulation time: 0 hr 1 min 13 sec) 
Heartbeat CPU  0 instructions:   69000001 cycles:   29831742 heartbeat IPC: 2.05193 cumulative IPC: 2.31297 (Simulation time: 0 hr 1 min 14 sec) 
Heartbeat CPU  0 instructions:   70000001 cycles:   30240816 heartbeat IPC: 2.44455 cumulative IPC: 2.31475 (Simulation time: 0 hr 1 min 15 sec) 
Heartbeat CPU  0 instructions:   71000001 cycles:   30608210 heartbeat IPC: 2.72187 cumulative IPC: 2.31964 (Simulation time: 0 hr 1 min 16 sec) 
Heartbeat CPU  0 instructions:   72000000 cycles:   31023958 heartbeat IPC: 2.40530 cumulative IPC: 2.32079 (Simulation time: 0 hr 1 min 18 sec) 
Heartbeat CPU  0 instructions:   73000000 cycles:   31481061 heartbeat IPC: 2.18769 cumulative IPC: 2.31885 (Simulation time: 0 hr 1 min 19 sec) 
Heartbeat CPU  0 instructions:   74000002 cycles:   31936679 heartbeat IPC: 2.19483 cumulative IPC: 2.31709 (Simulation time: 0 hr 1 min 20 sec) 
Heartbeat CPU  0 instructions:   75000002 cycles:   32425437 heartbeat IPC: 2.04600 cumulative IPC: 2.31300 (Simulation time: 0 hr 1 min 21 sec) 
Heartbeat CPU  0 instructions:   76000000 cycles:   32844016 heartbeat IPC: 2.38903 cumulative IPC: 2.31397 (Simulation time: 0 hr 1 min 22 sec) 
Heartbeat CPU  0 instructions:   77000003 cycles:   33211331 heartbeat IPC: 2.72247 cumulative IPC: 2.31849 (Simulation time: 0 hr 1 min 23 sec) 
Heartbeat CPU  0 instructions:   78000002 cycles:   33619616 heartbeat IPC: 2.44927 cumulative IPC: 2.32007 (Simulation time: 0 hr 1 min 24 sec) 
Heartbeat CPU  0 instructions:   79000000 cycles:   34075131 heartbeat IPC: 2.19531 cumulative IPC: 2.31841 (Simulation time: 0 hr 1 min 25 sec) 
Heartbeat CPU  0 instructions:   80000000 cycles:   34532317 heartbeat IPC: 2.18729 cumulative IPC: 2.31667 (Simulation time: 0 hr 1 min 26 sec) 
Heartbeat CPU  0 instructions:   81000001 cycles:   34991522 heartbeat IPC: 2.17768 cumulative IPC: 2.31485 (Simulation time: 0 hr 1 min 27 sec) 
Heartbeat CPU  0 instructions:   82000001 cycles:   35478194 heartbeat IPC: 2.05477 cumulative IPC: 2.31128 (Simulation time: 0 hr 1 min 28 sec) 
Heartbeat CPU  0 instructions:   83000001 cycles:   35849774 heartbeat IPC: 2.69121 cumulative IPC: 2.31522 (Simulation time: 0 hr 1 min 29 sec) 
Heartbeat CPU  0 instructions:   84000000 cycles:   36217942 heartbeat IPC: 2.71615 cumulative IPC: 2.31929 (Simulation time: 0 hr 1 min 30 sec) 
Heartbeat CPU  0 instructions:   85000003 cycles:   36673710 heartbeat IPC: 2.19411 cumulative IPC: 2.31774 (Simulation time: 0 hr 1 min 31 sec) 
Heartbeat CPU  0 instructions:   86000001 cycles:   37129605 heartbeat IPC: 2.19348 cumulative IPC: 2.31621 (Simulation time: 0 hr 1 min 32 sec) 
Heartbeat CPU  0 instructions:   87000003 cycles:   37586951 heartbeat IPC: 2.18653 cumulative IPC: 2.31463 (Simulation time: 0 hr 1 min 33 sec) 
Heartbeat CPU  0 instructions:   88000000 cycles:   38076750 heartbeat IPC: 2.04165 cumulative IPC: 2.31112 (Simulation time: 0 hr 1 min 34 sec) 
Heartbeat CPU  0 instructions:   89000002 cycles:   38479968 heartbeat IPC: 2.48005 cumulative IPC: 2.31289 (Simulation time: 0 hr 1 min 36 sec) 
Heartbeat CPU  0 instructions:   90000002 cycles:   38847410 heartbeat IPC: 2.72152 cumulative IPC: 2.31676 (Simulation time: 0 hr 1 min 37 sec) 
Heartbeat CPU  0 instructions:   91000002 cycles:   39268462 heartbeat IPC: 2.37500 cumulative IPC: 2.31738 (Simulation time: 0 hr 1 min 38 sec) 
Heartbeat CPU  0 instructions:   92000000 cycles:   39722263 heartbeat IPC: 2.20360 cumulative IPC: 2.31608 (Simulation time: 0 hr 1 min 39 sec) 
Heartbeat CPU  0 instructions:   93000002 cycles:   40178995 heartbeat IPC: 2.18947 cumulative IPC: 2.31464 (Simulation time: 0 hr 1 min 40 sec) 
Heartbeat CPU  0 instructions:   94000001 cycles:   40667372 heartbeat IPC: 2.04760 cumulative IPC: 2.31144 (Simulation time: 0 hr 1 min 41 sec) 
Heartbeat CPU  0 instructions:   95000003 cycles:   41039896 heartbeat IPC: 2.68440 cumulative IPC: 2.31482 (Simulation time: 0 hr 1 min 42 sec) 
Heartbeat CPU  0 instructions:   96000000 cycles:   41407118 heartbeat IPC: 2.72314 cumulative IPC: 2.31844 (Simulation time: 0 hr 1 min 43 sec) 
Heartbeat CPU  0 instructions:   97000001 cycles:   41853280 heartbeat IPC: 2.24134 cumulative IPC: 2.31762 (Simulation time: 0 hr 1 min 44 sec) 
Heartbeat CPU  0 instructions:   98000002 cycles:   42310065 heartbeat IPC: 2.18922 cumulative IPC: 2.31623 (Simulation time: 0 hr 1 min 45 sec) 
Heartbeat CPU  0 instructions:   99000003 cycles:   42796422 heartbeat IPC: 2.05610 cumulative IPC: 2.31328 (Simulation time: 0 hr 1 min 46 sec) 
Heartbeat CPU  0 instructions:  100000000 cycles:   43340360 heartbeat IPC: 1.83844 cumulative IPC: 2.30732 (Simulation time: 0 hr 1 min 47 sec) 

Warmup complete CPU  0 instructions:  100000001 cycles:   43340361 (Simulation time: 0 hr 1 min 47 sec) 

Heartbeat CPU  0 instructions:  101000001 cycles:   44280609 heartbeat IPC: 1.06355 cumulative IPC: 1.06355 (Simulation time: 0 hr 1 min 49 sec) 
Heartbeat CPU  0 instructions:  102000003 cycles:   45259519 heartbeat IPC: 1.02155 cumulative IPC: 1.04212 (Simulation time: 0 hr 1 min 50 sec) 
Heartbeat CPU  0 instructions:  103000000 cycles:   46355671 heartbeat IPC: 0.91228 cumulative IPC: 0.99492 (Simulation time: 0 hr 1 min 52 sec) 
Heartbeat CPU  0 instructions:  104000000 cycles:   47495811 heartbeat IPC: 0.87709 cumulative IPC: 0.96259 (Simulation time: 0 hr 1 min 53 sec) 
Heartbeat CPU  0 instructions:  105000000 cycles:   48581388 heartbeat IPC: 0.92117 cumulative IPC: 0.95401 (Simulation time: 0 hr 1 min 54 sec) 
Heartbeat CPU  0 instructions:  106000002 cycles:   49419106 heartbeat IPC: 1.19372 cumulative IPC: 0.98705 (Simulation time: 0 hr 1 min 56 sec) 
Heartbeat CPU  0 instructions:  107000003 cycles:   50219017 heartbeat IPC: 1.25014 cumulative IPC: 1.01764 (Simulation time: 0 hr 1 min 57 sec) 
Heartbeat CPU  0 instructions:  108000000 cycles:   51329093 heartbeat IPC: 0.90084 cumulative IPC: 1.00141 (Simulation time: 0 hr 1 min 58 sec) 
Heartbeat CPU  0 instructions:  109000000 cycles:   52428297 heartbeat IPC: 0.90975 cumulative IPC: 0.99032 (Simulation time: 0 hr 2 min 0 sec) 
Heartbeat CPU  0 instructions:  110000001 cycles:   53378254 heartbeat IPC: 1.05268 cumulative IPC: 0.99622 (Simulation time: 0 hr 2 min 1 sec) 
Heartbeat CPU  0 instructions:  111000001 cycles:   54183662 heartbeat IPC: 1.24161 cumulative IPC: 1.01445 (Simulation time: 0 hr 2 min 2 sec) 
Heartbeat CPU  0 instructions:  112000000 cycles:   55133154 heartbeat IPC: 1.05319 cumulative IPC: 1.01757 (Simulation time: 0 hr 2 min 4 sec) 
Heartbeat CPU  0 instructions:  113000002 cycles:   56259199 heartbeat IPC: 0.88807 cumulative IPC: 1.00628 (Simulation time: 0 hr 2 min 5 sec) 
Heartbeat CPU  0 instructions:  114000001 cycles:   57340236 heartbeat IPC: 0.92504 cumulative IPC: 1.00001 (Simulation time: 0 hr 2 min 7 sec) 
Heartbeat CPU  0 instructions:  115000000 cycles:   58297252 heartbeat IPC: 1.04491 cumulative IPC: 1.00288 (Simulation time: 0 hr 2 min 8 sec) 
Heartbeat CPU  0 instructions:  116000000 cycles:   59114968 heartbeat IPC: 1.22292 cumulative IPC: 1.01429 (Simulation time: 0 hr 2 min 9 sec) 
Heartbeat CPU  0 instructions:  117000000 cycles:   60234584 heartbeat IPC: 0.89316 cumulative IPC: 1.00626 (Simulation time: 0 hr 2 min 11 sec) 
Heartbeat CPU  0 instructions:  118000003 cycles:   61287048 heartbeat IPC: 0.95015 cumulative IPC: 1.00297 (Simulation time: 0 hr 2 min 12 sec) 
Heartbeat CPU  0 instructions:  119000002 cycles:   62363017 heartbeat IPC: 0.92939 cumulative IPC: 0.99881 (Simulation time: 0 hr 2 min 13 sec) 
Heartbeat CPU  0 instructions:  120000000 cycles:   63598701 heartbeat IPC: 0.80927 cumulative IPC: 0.98725 (Simulation time: 0 hr 2 min 15 sec) 
Heartbeat CPU  0 instructions:  121000000 cycles:   64581081 heartbeat IPC: 1.01794 cumulative IPC: 0.98867 (Simulation time: 0 hr 2 min 16 sec) 
Heartbeat CPU  0 instructions:  122000001 cycles:   65383202 heartbeat IPC: 1.24670 cumulative IPC: 0.99806 (Simulation time: 0 hr 2 min 17 sec) 
Heartbeat CPU  0 instructions:  123000001 cycles:   66372213 heartbeat IPC: 1.01111 cumulative IPC: 0.99862 (Simulation time: 0 hr 2 min 19 sec) 
Heartbeat CPU  0 instructions:  124000000 cycles:   67494311 heartbeat IPC: 0.89119 cumulative IPC: 0.99363 (Simulation time: 0 hr 2 min 20 sec) 
Heartbeat CPU  0 instructions:  125000001 cycles:   68573914 heartbeat IPC: 0.92627 cumulative IPC: 0.99074 (Simulation time: 0 hr 2 min 21 sec) 
Heartbeat CPU  0 instructions:  126000003 cycles:   69656998 heartbeat IPC: 0.92329 cumulative IPC: 0.98797 (Simulation time: 0 hr 2 min 23 sec) 
Heartbeat CPU  0 instructions:  127000000 cycles:   70811687 heartbeat IPC: 0.86603 cumulative IPC: 0.98284 (Simulation time: 0 hr 2 min 24 sec) 
Heartbeat CPU  0 instructions:  128000000 cycles:   71599060 heartbeat IPC: 1.27005 cumulative IPC: 0.99085 (Simulation time: 0 hr 2 min 25 sec) 
Heartbeat CPU  0 instructions:  129000000 cycles:   72488239 heartbeat IPC: 1.12463 cumulative IPC: 0.99493 (Simulation time: 0 hr 2 min 27 sec) 
Heartbeat CPU  0 instructions:  130000000 cycles:   73650058 heartbeat IPC: 0.86072 cumulative IPC: 0.98978 (Simulation time: 0 hr 2 min 28 sec) 
Heartbeat CPU  0 instructions:  131000002 cycles:   74738692 heartbeat IPC: 0.91858 cumulative IPC: 0.98731 (Simulation time: 0 hr 2 min 30 sec) 
Heartbeat CPU  0 instructions:  132000000 cycles:   75932390 heartbeat IPC: 0.83773 cumulative IPC: 0.98184 (Simulation time: 0 hr 2 min 31 sec) 
Heartbeat CPU  0 instructions:  133000000 cycles:   76834674 heartbeat IPC: 1.10830 cumulative IPC: 0.98524 (Simulation time: 0 hr 2 min 32 sec) 
Heartbeat CPU  0 instructions:  134000002 cycles:   77639681 heartbeat IPC: 1.24223 cumulative IPC: 0.99127 (Simulation time: 0 hr 2 min 34 sec) 
Heartbeat CPU  0 instructions:  135000001 cycles:   78682243 heartbeat IPC: 0.95917 cumulative IPC: 0.99033 (Simulation time: 0 hr 2 min 35 sec) 
Heartbeat CPU  0 instructions:  136000000 cycles:   79796840 heartbeat IPC: 0.89718 cumulative IPC: 0.98748 (Simulation time: 0 hr 2 min 36 sec) 
Heartbeat CPU  0 instructions:  137000002 cycles:   80955875 heartbeat IPC: 0.86279 cumulative IPC: 0.98364 (Simulation time: 0 hr 2 min 38 sec) 
Heartbeat CPU  0 instructions:  138000002 cycles:   81823338 heartbeat IPC: 1.15279 cumulative IPC: 0.98745 (Simulation time: 0 hr 2 min 39 sec) 
Heartbeat CPU  0 instructions:  139000002 cycles:   82637815 heartbeat IPC: 1.22778 cumulative IPC: 0.99243 (Simulation time: 0 hr 2 min 40 sec) 
Heartbeat CPU  0 instructions:  140000000 cycles:   83705247 heartbeat IPC: 0.93683 cumulative IPC: 0.99096 (Simulation time: 0 hr 2 min 42 sec) 
Heartbeat CPU  0 instructions:  141000000 cycles:   84818078 heartbeat IPC: 0.89861 cumulative IPC: 0.98848 (Simulation time: 0 hr 2 min 43 sec) 
Heartbeat CPU  0 instructions:  142000001 cycles:   85958370 heartbeat IPC: 0.87697 cumulative IPC: 0.98550 (Simulation time: 0 hr 2 min 44 sec) 
Heartbeat CPU  0 instructions:  143000003 cycles:   86765427 heartbeat IPC: 1.23907 cumulative IPC: 0.99021 (Simulation time: 0 hr 2 min 46 sec) 
Heartbeat CPU  0 instructions:  144000000 cycles:   87601724 heartbeat IPC: 1.19574 cumulative IPC: 0.99409 (Simulation time: 0 hr 2 min 47 sec) 
Heartbeat CPU  0 instructions:  145000002 cycles:   88730660 heartbeat IPC: 0.88579 cumulative IPC: 0.99140 (Simulation time: 0 hr 2 min 49 sec) 
Heartbeat CPU  0 instructions:  146000002 cycles:   89838060 heartbeat IPC: 0.90302 cumulative IPC: 0.98930 (Simulation time: 0 hr 2 min 50 sec) 
Heartbeat CPU  0 instructions:  147000002 cycles:   90872703 heartbeat IPC: 0.96652 cumulative IPC: 0.98880 (Simulation time: 0 hr 2 min 51 sec) 
Heartbeat CPU  0 instructions:  148000000 cycles:   91675368 heartbeat IPC: 1.24585 cumulative IPC: 0.99307 (Simulation time: 0 hr 2 min 53 sec) 
Heartbeat CPU  0 instructions:  149000000 cycles:   92595672 heartbeat IPC: 1.08660 cumulative IPC: 0.99482 (Simulation time: 0 hr 2 min 54 sec) 
Heartbeat CPU  0 instructions:  150000003 cycles:   93739088 heartbeat IPC: 0.87457 cumulative IPC: 0.99209 (Simulation time: 0 hr 2 min 55 sec) 
Heartbeat CPU  0 instructions:  151000002 cycles:   94914926 heartbeat IPC: 0.85046 cumulative IPC: 0.98886 (Simulation time: 0 hr 2 min 57 sec) 
Heartbeat CPU  0 instructions:  152000000 cycles:   95837305 heartbeat IPC: 1.08415 cumulative IPC: 0.99053 (Simulation time: 0 hr 2 min 58 sec) 
Heartbeat CPU  0 instructions:  153000001 cycles:   96705602 heartbeat IPC: 1.15168 cumulative IPC: 0.99316 (Simulation time: 0 hr 2 min 59 sec) 
Heartbeat CPU  0 instructions:  154000003 cycles:   97550210 heartbeat IPC: 1.18398 cumulative IPC: 0.99613 (Simulation time: 0 hr 3 min 1 sec) 
Heartbeat CPU  0 instructions:  155000003 cycles:   98604896 heartbeat IPC: 0.94815 cumulative IPC: 0.99521 (Simulation time: 0 hr 3 min 2 sec) 
Heartbeat CPU  0 instructions:  156000000 cycles:   99725881 heartbeat IPC: 0.89207 cumulative IPC: 0.99316 (Simulation time: 0 hr 3 min 4 sec) 
Heartbeat CPU  0 instructions:  157000003 cycles:  100835572 heartbeat IPC: 0.90115 cumulative IPC: 0.99139 (Simulation time: 0 hr 3 min 5 sec) 
Heartbeat CPU  0 instructions:  158000002 cycles:  101636828 heartbeat IPC: 1.24804 cumulative IPC: 0.99491 (Simulation time: 0 hr 3 min 6 sec) 
Heartbeat CPU  0 instructions:  159000001 cycles:  102483418 heartbeat IPC: 1.18121 cumulative IPC: 0.99758 (Simulation time: 0 hr 3 min 8 sec) 
Heartbeat CPU  0 instructions:  160000000 cycles:  103651479 heartbeat IPC: 0.85612 cumulative IPC: 0.99484 (Simulation time: 0 hr 3 min 9 sec) 
Heartbeat CPU  0 instructions:  161000000 cycles:  104795135 heartbeat IPC: 0.87439 cumulative IPC: 0.99260 (Simulation time: 0 hr 3 min 10 sec) 
Heartbeat CPU  0 instructions:  162000003 cycles:  105694991 heartbeat IPC: 1.11129 cumulative IPC: 0.99431 (Simulation time: 0 hr 3 min 12 sec) 
Heartbeat CPU  0 instructions:  163000002 cycles:  106507342 heartbeat IPC: 1.23099 cumulative IPC: 0.99736 (Simulation time: 0 hr 3 min 13 sec) 
Heartbeat CPU  0 instructions:  164000000 cycles:  107528362 heartbeat IPC: 0.97941 cumulative IPC: 0.99707 (Simulation time: 0 hr 3 min 14 sec) 
Heartbeat CPU  0 instructions:  165000000 cycles:  108647724 heartbeat IPC: 0.89337 cumulative IPC: 0.99529 (Simulation time: 0 hr 3 min 16 sec) 
Heartbeat CPU  0 instructions:  166000002 cycles:  109747144 heartbeat IPC: 0.90957 cumulative IPC: 0.99387 (Simulation time: 0 hr 3 min 17 sec) 
Heartbeat CPU  0 instructions:  167000001 cycles:  110550677 heartbeat IPC: 1.24450 cumulative IPC: 0.99687 (Simulation time: 0 hr 3 min 18 sec) 
Heartbeat CPU  0 instructions:  168000000 cycles:  111375109 heartbeat IPC: 1.21296 cumulative IPC: 0.99949 (Simulation time: 0 hr 3 min 20 sec) 
Heartbeat CPU  0 instructions:  169000000 cycles:  112540672 heartbeat IPC: 0.85795 cumulative IPC: 0.99711 (Simulation time: 0 hr 3 min 21 sec) 
Heartbeat CPU  0 instructions:  170000002 cycles:  113684812 heartbeat IPC: 0.87402 cumulative IPC: 0.99510 (Simulation time: 0 hr 3 min 22 sec) 
Heartbeat CPU  0 instructions:  171000003 cycles:  114597694 heartbeat IPC: 1.09543 cumulative IPC: 0.99639 (Simulation time: 0 hr 3 min 24 sec) 
Heartbeat CPU  0 instructions:  172000000 cycles:  115406456 heartbeat IPC: 1.23645 cumulative IPC: 0.99908 (Simulation time: 0 hr 3 min 25 sec) 
Heartbeat CPU  0 instructions:  173000000 cycles:  116413642 heartbeat IPC: 0.99287 cumulative IPC: 0.99900 (Simulation time: 0 hr 3 min 27 sec) 
Heartbeat CPU  0 instructions:  174000000 cycles:  117546813 heartbeat IPC: 0.88248 cumulative IPC: 0.99722 (Simulation time: 0 hr 3 min 28 sec) 
Heartbeat CPU  0 instructions:  175000002 cycles:  118661112 heartbeat IPC: 0.89743 cumulative IPC: 0.99574 (Simulation time: 0 hr 3 min 29 sec) 
Heartbeat CPU  0 instructions:  176000000 cycles:  119465917 heartbeat IPC: 1.24253 cumulative IPC: 0.99835 (Simulation time: 0 hr 3 min 31 sec) 
Heartbeat CPU  0 instructions:  177000003 cycles:  120297745 heartbeat IPC: 1.20218 cumulative IPC: 1.00055 (Simulation time: 0 hr 3 min 32 sec) 
Heartbeat CPU  0 instructions:  178000003 cycles:  121458252 heartbeat IPC: 0.86169 cumulative IPC: 0.99849 (Simulation time: 0 hr 3 min 33 sec) 
Heartbeat CPU  0 instructions:  179000003 cycles:  122612705 heartbeat IPC: 0.86621 cumulative IPC: 0.99656 (Simulation time: 0 hr 3 min 35 sec) 
Heartbeat CPU  0 instructions:  180000000 cycles:  123520649 heartbeat IPC: 1.10139 cumulative IPC: 0.99775 (Simulation time: 0 hr 3 min 36 sec) 
Heartbeat CPU  0 instructions:  181000002 cycles:  124330025 heartbeat IPC: 1.23552 cumulative IPC: 1.00013 (Simulation time: 0 hr 3 min 37 sec) 
Heartbeat CPU  0 instructions:  182000001 cycles:  125339779 heartbeat IPC: 0.99034 cumulative IPC: 1.00001 (Simulation time: 0 hr 3 min 39 sec) 
Heartbeat CPU  0 instructions:  183000002 cycles:  126450319 heartbeat IPC: 0.90046 cumulative IPC: 0.99868 (Simulation time: 0 hr 3 min 40 sec) 
Heartbeat CPU  0 instructions:  184000000 cycles:  127573006 heartbeat IPC: 0.89072 cumulative IPC: 0.99724 (Simulation time: 0 hr 3 min 41 sec) 
Heartbeat CPU  0 instructions:  185000003 cycles:  128376100 heartbeat IPC: 1.24519 cumulative IPC: 0.99958 (Simulation time: 0 hr 3 min 43 sec) 
Heartbeat CPU  0 instructions:  186000001 cycles:  129196606 heartbeat IPC: 1.21876 cumulative IPC: 1.00167 (Simulation time: 0 hr 3 min 44 sec) 
Heartbeat CPU  0 instructions:  187000002 cycles:  130362222 heartbeat IPC: 0.85792 cumulative IPC: 0.99975 (Simulation time: 0 hr 3 min 46 sec) 
Heartbeat CPU  0 instructions:  188000000 cycles:  131516237 heartbeat IPC: 0.86654 cumulative IPC: 0.99801 (Simulation time: 0 hr 3 min 47 sec) 
Heartbeat CPU  0 instructions:  189000001 cycles:  132432459 heartbeat IPC: 1.09144 cumulative IPC: 0.99897 (Simulation time: 0 hr 3 min 48 sec) 
Heartbeat CPU  0 instructions:  190000001 cycles:  133241541 heartbeat IPC: 1.23597 cumulative IPC: 1.00110 (Simulation time: 0 hr 3 min 50 sec) 
Heartbeat CPU  0 instructions:  191000003 cycles:  134252733 heartbeat IPC: 0.98893 cumulative IPC: 1.00096 (Simulation time: 0 hr 3 min 51 sec) 
Heartbeat CPU  0 instructions:  192000000 cycles:  135372168 heartbeat IPC: 0.89331 cumulative IPC: 0.99965 (Simulation time: 0 hr 3 min 52 sec) 
Heartbeat CPU  0 instructions:  193000002 cycles:  136504015 heartbeat IPC: 0.88351 cumulative IPC: 0.99824 (Simulation time: 0 hr 3 min 54 sec) 
Heartbeat CPU  0 instructions:  194000002 cycles:  137305400 heartbeat IPC: 1.24784 cumulative IPC: 1.00037 (Simulation time: 0 hr 3 min 55 sec) 
Heartbeat CPU  0 instructions:  195000003 cycles:  138141282 heartbeat IPC: 1.19634 cumulative IPC: 1.00210 (Simulation time: 0 hr 3 min 56 sec) 
Heartbeat CPU  0 instructions:  196000000 cycles:  139298252 heartbeat IPC: 0.86432 cumulative IPC: 1.00044 (Simulation time: 0 hr 3 min 58 sec) 
Heartbeat CPU  0 instructions:  197000002 cycles:  140458407 heartbeat IPC: 0.86196 cumulative IPC: 0.99878 (Simulation time: 0 hr 3 min 59 sec) 
Heartbeat CPU  0 instructions:  198000001 cycles:  141365767 heartbeat IPC: 1.10210 cumulative IPC: 0.99974 (Simulation time: 0 hr 4 min 1 sec) 
Heartbeat CPU  0 instructions:  199000001 cycles:  142171599 heartbeat IPC: 1.24095 cumulative IPC: 1.00171 (Simulation time: 0 hr 4 min 2 sec) 
Heartbeat CPU  0 instructions:  200000000 cycles:  143177387 heartbeat IPC: 0.99424 cumulative IPC: 1.00163 (Simulation time: 0 hr 4 min 3 sec) 
Finished CPU 0 instructions: 100000003 cycles: 99837034 cumulative IPC: 1.00163 (Simulation time: 0 hr 4 min 3 sec) 

ChampSim completed all CPUs

[ROI Statistics]
Core_0_instructions 100000003
Core_0_cycles 99837034
Core_0_IPC 1.00163

Core_0_branch_prediction_accuracy 97.76309
Core_0_branch_MPKI 1.93474
Core_0_average_ROB_occupancy_at_mispredict 144.43668

Core_0_L1D_total_access 15269746
Core_0_L1D_total_hit 13845064
Core_0_L1D_total_miss 1424682
Core_0_L1D_loads 13950018
Core_0_L1D_load_hit 12614932
Core_0_L1D_load_miss 1335086
Core_0_L1D_RFOs 1319728
Core_0_L1D_RFO_hit 1230132
Core_0_L1D_RFO_miss 89596
Core_0_L1D_prefetches 0
Core_0_L1D_prefetch_hit 0
Core_0_L1D_prefetch_miss 0
Core_0_L1D_writebacks 0
Core_0_L1D_writeback_hit 0
Core_0_L1D_writeback_miss 0
Core_0_L1D_prefetch_requested 0
Core_0_L1D_prefetch_issued 0
Core_0_L1D_prefetch_useful 0
Core_0_L1D_prefetch_useless 0
Core_0_L1D_prefetch_late 0
Core_0_L1D_average_miss_latency 56.16219

Core_0_L1I_total_access 24462097
Core_0_L1I_total_hit 24461796
Core_0_L1I_total_miss 301
Core_0_L1I_loads 24462097
Core_0_L1I_load_hit 24461796
Core_0_L1I_load_miss 301
Core_0_L1I_RFOs 0
Core_0_L1I_RFO_hit 0
Core_0_L1I_RFO_miss 0
Core_0_L1I_prefetches 0
Core_0_L1I_prefetch_hit 0
Core_0_L1I_prefetch_miss 0
Core_0_L1I_writebacks 0
Core_0_L1I_writeback_hit 0
Core_0_L1I_writeback_miss 0
Core_0_L1I_prefetch_requested 0
Core_0_L1I_prefetch_issued 0
Core_0_L1I_prefetch_useful 0
Core_0_L1I_prefetch_useless 0
Core_0_L1I_prefetch_late 0
Core_0_L1I_average_miss_latency 152.34884

Core_0_L2C_total_access 2576291
Core_0_L2C_total_hit 1279212
Core_0_L2C_total_miss 1297079
Core_0_L2C_loads 1335384
Core_0_L2C_load_hit 923837
Core_0_L2C_load_miss 411547
Core_0_L2C_RFOs 89595
Core_0_L2C_RFO_hit 8148
Core_0_L2C_RFO_miss 81447
Core_0_L2C_prefetches 1040767
Core_0_L2C_prefetch_hit 236947
Core_0_L2C_prefetch_miss 803820
Core_0_L2C_writebacks 110545
Core_0_L2C_writeback_hit 110280
Core_0_L2C_writeback_miss 265
Core_0_L2C_prefetch_requested 2747232
Core_0_L2C_prefetch_issued 2699673
Core_0_L2C_prefetch_useful 1703465
Core_0_L2C_prefetch_useless 183707
Core_0_L2C_prefetch_late 239217
Core_0_L2C_average_miss_latency 102.90790

Core_0_LLC_total_access 1901259
Core_0_LLC_total_hit 626348
Core_0_LLC_total_miss 1274911
Core_0_LLC_loads 176259
Core_0_LLC_load_hit 53494
Core_0_LLC_load_miss 122765
Core_0_LLC_RFOs 81446
Core_0_LLC_RFO_hit 13948
Core_0_LLC_RFO_miss 67498
Core_0_LLC_prefetches 1538395
Core_0_LLC_prefetch_hit 454702
Core_0_LLC_prefetch_miss 1083693
Core_0_LLC_writebacks 105159
Core_0_LLC_writeback_hit 104204
Core_0_LLC_writeback_miss 955
Core_0_LLC_prefetch_requested 2087631
Core_0_LLC_prefetch_issued 2054442
Core_0_LLC_prefetch_useful 68473
Core_0_LLC_prefetch_useless 2098350
Core_0_LLC_prefetch_late 4399
Core_0_LLC_average_miss_latency 157.29281

Core_0_major_page_fault 0
Core_0_minor_page_fault 3151

CPU 0 L2C next line prefetcher final stats
LLC Next Line Prefetcher Final Stats: none
Channel_0_RQ_row_buffer_hit 748293
Channel_0_RQ_row_buffer_miss 525651
Channel_0_WQ_row_buffer_hit 54933
Channel_0_WQ_row_buffer_miss 43252
Channel_0_WQ_full 0
Channel_0_dbus_congested 322373

avg_congested_cycle 8
