*************************************************
   ChampSim Multicore Out-of-Order Simulator
   Last compiled: Dec 22 2023 14:29:28
*************************************************

trace_0 ./test_trace/482.sphinx3-1100B.champsimtrace.xz
CPU 0 L1D next line prefetcher
CPU 0 L2C next line prefetcher
LLC Next Line Prefetcher
warmup_instructions 100000000
simulation_instructions 100000000
champsim_seed 260

num_cpus 1
cpu_freq 4000
dram_io_freq 2400
page_size 4096
block_size 64
max_read_per_cycle 8
max_fill_per_cycle 1
dram_channels 1
dram_ranks 1
dram_banks 8
dram_rows 65536
dram_columns 128
dram_row_size 8
dram_size 4096
dram_pages 1048576

fetch_width 6
decode_width 6
exec_width 4
lq_width 2
sq_width 2
retire_width 4
scheduler_size 128
branch_mispredict_penalty 20
rob_size 256
lq_size 72
sq_size 56
num_instr_destinations_sparc 4
num_instr_destinations 2
num_instr_sources 4

itlb_set 16
itlb_way 8
itlb_rq_size 16
itlb_wq_size 16
itlb_pq_size 0
itlb_mshr_size 8
itlb_latency 1

dtlb_set 16
dtlb_way 4
dtlb_rq_size 16
dtlb_wq_size 16
dtlb_pq_size 0
dtlb_mshr_size 8
dtlb_latency 1

stlb_set 128
stlb_way 12
stlb_rq_size 32
stlb_wq_size 32
stlb_pq_size 0
stlb_mshr_size 16
stlb_latency 8

l1i_size 32
l1i_set 64
l1i_way 8
l1i_rq_size 64
l1i_wq_size 64
l1i_pq_size 8
l1i_mshr_size 8
l1i_latency 1

l1d_size 32
l1d_set 64
l1d_way 8
l1d_rq_size 64
l1d_wq_size 64
l1d_pq_size 8
l1d_mshr_size 16
l1d_latency 4

l2c_size 512
l2c_set 1024
l2c_way 8
l2c_rq_size 32
l2c_wq_size 32
l2c_pq_size 16
l2c_mshr_size 32
l2c_latency 10

llc_size 2048
llc_set 2048
llc_way 16
llc_rq_size 32
llc_wq_size 32
llc_pq_size 32
llc_mshr_size 64
llc_latency 20

dram_channel_width 8
dram_wq_size 64
dram_rq_size 64
tRP 15
tRCD 15
tCAS 12.5
dram_dbus_turn_around_time 30
dram_write_high_wm 56
dram_write_low_wm 48
min_dram_writes_per_switch 16
dram_mtps 2400
dram_dbus_return_time 13


Heartbeat CPU  0 instructions:    1000001 cycles:     367555 heartbeat IPC: 2.72068 cumulative IPC: 2.72068 (Simulation time: 0 hr 0 min 1 sec) 
Heartbeat CPU  0 instructions:    2000003 cycles:     794592 heartbeat IPC: 2.34172 cumulative IPC: 2.51702 (Simulation time: 0 hr 0 min 3 sec) 
Heartbeat CPU  0 instructions:    3000001 cycles:    1251832 heartbeat IPC: 2.18703 cumulative IPC: 2.39649 (Simulation time: 0 hr 0 min 4 sec) 
Heartbeat CPU  0 instructions:    4000000 cycles:    1733775 heartbeat IPC: 2.07493 cumulative IPC: 2.30710 (Simulation time: 0 hr 0 min 5 sec) 
Heartbeat CPU  0 instructions:    5000000 cycles:    2174933 heartbeat IPC: 2.26676 cumulative IPC: 2.29892 (Simulation time: 0 hr 0 min 6 sec) 
Heartbeat CPU  0 instructions:    6000001 cycles:    2542044 heartbeat IPC: 2.72397 cumulative IPC: 2.36031 (Simulation time: 0 hr 0 min 7 sec) 
Heartbeat CPU  0 instructions:    7000000 cycles:    2932820 heartbeat IPC: 2.55901 cumulative IPC: 2.38678 (Simulation time: 0 hr 0 min 8 sec) 
Heartbeat CPU  0 instructions:    8000000 cycles:    3391162 heartbeat IPC: 2.18178 cumulative IPC: 2.35907 (Simulation time: 0 hr 0 min 9 sec) 
Heartbeat CPU  0 instructions:    9000000 cycles:    3848927 heartbeat IPC: 2.18453 cumulative IPC: 2.33831 (Simulation time: 0 hr 0 min 10 sec) 
Heartbeat CPU  0 instructions:   10000000 cycles:    4338214 heartbeat IPC: 2.04379 cumulative IPC: 2.30510 (Simulation time: 0 hr 0 min 11 sec) 
Heartbeat CPU  0 instructions:   11000001 cycles:    4709654 heartbeat IPC: 2.69223 cumulative IPC: 2.33563 (Simulation time: 0 hr 0 min 12 sec) 
Heartbeat CPU  0 instructions:   12000000 cycles:    5076704 heartbeat IPC: 2.72442 cumulative IPC: 2.36374 (Simulation time: 0 hr 0 min 13 sec) 
Heartbeat CPU  0 instructions:   13000001 cycles:    5525619 heartbeat IPC: 2.22760 cumulative IPC: 2.35268 (Simulation time: 0 hr 0 min 15 sec) 
Heartbeat CPU  0 instructions:   14000000 cycles:    5983420 heartbeat IPC: 2.18435 cumulative IPC: 2.33980 (Simulation time: 0 hr 0 min 16 sec) 
Heartbeat CPU  0 instructions:   15000000 cycles:    6465253 heartbeat IPC: 2.07541 cumulative IPC: 2.32009 (Simulation time: 0 hr 0 min 17 sec) 
Heartbeat CPU  0 instructions:   16000000 cycles:    6874068 heartbeat IPC: 2.44609 cumulative IPC: 2.32759 (Simulation time: 0 hr 0 min 18 sec) 
Heartbeat CPU  0 instructions:   17000003 cycles:    7241232 heartbeat IPC: 2.72359 cumulative IPC: 2.34767 (Simulation time: 0 hr 0 min 19 sec) 
Heartbeat CPU  0 instructions:   18000003 cycles:    7652911 heartbeat IPC: 2.42908 cumulative IPC: 2.35205 (Simulation time: 0 hr 0 min 20 sec) 
Heartbeat CPU  0 instructions:   19000003 cycles:    8110593 heartbeat IPC: 2.18492 cumulative IPC: 2.34262 (Simulation time: 0 hr 0 min 21 sec) 
Heartbeat CPU  0 instructions:   20000000 cycles:    8578552 heartbeat IPC: 2.13693 cumulative IPC: 2.33140 (Simulation time: 0 hr 0 min 22 sec) 
Heartbeat CPU  0 instructions:   21000002 cycles:    9036524 heartbeat IPC: 2.18354 cumulative IPC: 2.32390 (Simulation time: 0 hr 0 min 23 sec) 
Heartbeat CPU  0 instructions:   22000003 cycles:    9403539 heartbeat IPC: 2.72469 cumulative IPC: 2.33955 (Simulation time: 0 hr 0 min 24 sec) 
Heartbeat CPU  0 instructions:   23000001 cycles:    9783918 heartbeat IPC: 2.62895 cumulative IPC: 2.35080 (Simulation time: 0 hr 0 min 26 sec) 
Heartbeat CPU  0 instructions:   24000000 cycles:   10238969 heartbeat IPC: 2.19755 cumulative IPC: 2.34399 (Simulation time: 0 hr 0 min 27 sec) 
Heartbeat CPU  0 instructions:   25000002 cycles:   10694165 heartbeat IPC: 2.19686 cumulative IPC: 2.33772 (Simulation time: 0 hr 0 min 28 sec) 
Heartbeat CPU  0 instructions:   26000002 cycles:   11172182 heartbeat IPC: 2.09198 cumulative IPC: 2.32721 (Simulation time: 0 hr 0 min 29 sec) 
Heartbeat CPU  0 instructions:   27000001 cycles:   11564363 heartbeat IPC: 2.54984 cumulative IPC: 2.33476 (Simulation time: 0 hr 0 min 30 sec) 
Heartbeat CPU  0 instructions:   28000000 cycles:   11931256 heartbeat IPC: 2.72559 cumulative IPC: 2.34678 (Simulation time: 0 hr 0 min 31 sec) 
Heartbeat CPU  0 instructions:   29000001 cycles:   12367174 heartbeat IPC: 2.29401 cumulative IPC: 2.34492 (Simulation time: 0 hr 0 min 32 sec) 
Heartbeat CPU  0 instructions:   30000003 cycles:   12820481 heartbeat IPC: 2.20601 cumulative IPC: 2.34001 (Simulation time: 0 hr 0 min 33 sec) 
Heartbeat CPU  0 instructions:   31000002 cycles:   13274200 heartbeat IPC: 2.20401 cumulative IPC: 2.33536 (Simulation time: 0 hr 0 min 34 sec) 
Heartbeat CPU  0 instructions:   32000000 cycles:   13756849 heartbeat IPC: 2.07189 cumulative IPC: 2.32611 (Simulation time: 0 hr 0 min 35 sec) 
Heartbeat CPU  0 instructions:   33000003 cycles:   14156893 heartbeat IPC: 2.49973 cumulative IPC: 2.33102 (Simulation time: 0 hr 0 min 36 sec) 
Heartbeat CPU  0 instructions:   34000003 cycles:   14523802 heartbeat IPC: 2.72547 cumulative IPC: 2.34099 (Simulation time: 0 hr 0 min 38 sec) 
Heartbeat CPU  0 instructions:   35000000 cycles:   14950535 heartbeat IPC: 2.34338 cumulative IPC: 2.34105 (Simulation time: 0 hr 0 min 39 sec) 
Heartbeat CPU  0 instructions:   36000000 cycles:   15403959 heartbeat IPC: 2.20544 cumulative IPC: 2.33706 (Simulation time: 0 hr 0 min 40 sec) 
Heartbeat CPU  0 instructions:   37000000 cycles:   15857503 heartbeat IPC: 2.20486 cumulative IPC: 2.33328 (Simulation time: 0 hr 0 min 41 sec) 
Heartbeat CPU  0 instructions:   38000003 cycles:   16344767 heartbeat IPC: 2.05228 cumulative IPC: 2.32490 (Simulation time: 0 hr 0 min 42 sec) 
Heartbeat CPU  0 instructions:   39000001 cycles:   16750999 heartbeat IPC: 2.46164 cumulative IPC: 2.32822 (Simulation time: 0 hr 0 min 43 sec) 
Heartbeat CPU  0 instructions:   40000000 cycles:   17118024 heartbeat IPC: 2.72461 cumulative IPC: 2.33672 (Simulation time: 0 hr 0 min 44 sec) 
Heartbeat CPU  0 instructions:   41000003 cycles:   17537881 heartbeat IPC: 2.38177 cumulative IPC: 2.33780 (Simulation time: 0 hr 0 min 45 sec) 
Heartbeat CPU  0 instructions:   42000000 cycles:   17995549 heartbeat IPC: 2.18498 cumulative IPC: 2.33391 (Simulation time: 0 hr 0 min 46 sec) 
Heartbeat CPU  0 instructions:   43000001 cycles:   18451559 heartbeat IPC: 2.19294 cumulative IPC: 2.33043 (Simulation time: 0 hr 0 min 47 sec) 
Heartbeat CPU  0 instructions:   44000000 cycles:   18941292 heartbeat IPC: 2.04193 cumulative IPC: 2.32297 (Simulation time: 0 hr 0 min 48 sec) 
Heartbeat CPU  0 instructions:   45000002 cycles:   19352226 heartbeat IPC: 2.43349 cumulative IPC: 2.32531 (Simulation time: 0 hr 0 min 50 sec) 
Heartbeat CPU  0 instructions:   46000000 cycles:   19719413 heartbeat IPC: 2.72340 cumulative IPC: 2.33273 (Simulation time: 0 hr 0 min 51 sec) 
Heartbeat CPU  0 instructions:   47000002 cycles:   20132161 heartbeat IPC: 2.42279 cumulative IPC: 2.33457 (Simulation time: 0 hr 0 min 52 sec) 
Heartbeat CPU  0 instructions:   48000000 cycles:   20591434 heartbeat IPC: 2.17735 cumulative IPC: 2.33107 (Simulation time: 0 hr 0 min 53 sec) 
Heartbeat CPU  0 instructions:   49000003 cycles:   21047647 heartbeat IPC: 2.19197 cumulative IPC: 2.32805 (Simulation time: 0 hr 0 min 54 sec) 
Heartbeat CPU  0 instructions:   50000003 cycles:   21557871 heartbeat IPC: 1.95992 cumulative IPC: 2.31934 (Simulation time: 0 hr 0 min 55 sec) 
Heartbeat CPU  0 instructions:   51000002 cycles:   22019172 heartbeat IPC: 2.16778 cumulative IPC: 2.31616 (Simulation time: 0 hr 0 min 56 sec) 
Heartbeat CPU  0 instructions:   52000000 cycles:   22391587 heartbeat IPC: 2.68517 cumulative IPC: 2.32230 (Simulation time: 0 hr 0 min 57 sec) 
Heartbeat CPU  0 instructions:   53000001 cycles:   22758712 heartbeat IPC: 2.72387 cumulative IPC: 2.32878 (Simulation time: 0 hr 0 min 58 sec) 
Heartbeat CPU  0 instructions:   54000001 cycles:   23207990 heartbeat IPC: 2.22579 cumulative IPC: 2.32678 (Simulation time: 0 hr 0 min 59 sec) 
Heartbeat CPU  0 instructions:   55000001 cycles:   23661212 heartbeat IPC: 2.20642 cumulative IPC: 2.32448 (Simulation time: 0 hr 1 min 0 sec) 
Heartbeat CPU  0 instructions:   56000000 cycles:   24117902 heartbeat IPC: 2.18967 cumulative IPC: 2.32193 (Simulation time: 0 hr 1 min 1 sec) 
Heartbeat CPU  0 instructions:   57000003 cycles:   24602612 heartbeat IPC: 2.06310 cumulative IPC: 2.31683 (Simulation time: 0 hr 1 min 3 sec) 
Heartbeat CPU  0 instructions:   58000001 cycles:   24995167 heartbeat IPC: 2.54741 cumulative IPC: 2.32045 (Simulation time: 0 hr 1 min 4 sec) 
Heartbeat CPU  0 instructions:   59000001 cycles:   25362110 heartbeat IPC: 2.72522 cumulative IPC: 2.32630 (Simulation time: 0 hr 1 min 5 sec) 
Heartbeat CPU  0 instructions:   60000000 cycles:   25801096 heartbeat IPC: 2.27797 cumulative IPC: 2.32548 (Simulation time: 0 hr 1 min 6 sec) 
Heartbeat CPU  0 instructions:   61000000 cycles:   26256784 heartbeat IPC: 2.19448 cumulative IPC: 2.32321 (Simulation time: 0 hr 1 min 7 sec) 
Heartbeat CPU  0 instructions:   62000000 cycles:   26713887 heartbeat IPC: 2.18769 cumulative IPC: 2.32089 (Simulation time: 0 hr 1 min 8 sec) 
Heartbeat CPU  0 instructions:   63000000 cycles:   27200546 heartbeat IPC: 2.05483 cumulative IPC: 2.31613 (Simulation time: 0 hr 1 min 9 sec) 
Heartbeat CPU  0 instructions:   64000000 cycles:   27601506 heartbeat IPC: 2.49401 cumulative IPC: 2.31871 (Simulation time: 0 hr 1 min 10 sec) 
Heartbeat CPU  0 instructions:   65000000 cycles:   27968573 heartbeat IPC: 2.72430 cumulative IPC: 2.32404 (Simulation time: 0 hr 1 min 11 sec) 
Heartbeat CPU  0 instructions:   66000001 cycles:   28393380 heartbeat IPC: 2.35401 cumulative IPC: 2.32449 (Simulation time: 0 hr 1 min 12 sec) 
Heartbeat CPU  0 instructions:   67000003 cycles:   28852714 heartbeat IPC: 2.17707 cumulative IPC: 2.32214 (Simulation time: 0 hr 1 min 13 sec) 
Heartbeat CPU  0 instructions:   68000000 cycles:   29306437 heartbeat IPC: 2.20398 cumulative IPC: 2.32031 (Simulation time: 0 hr 1 min 15 sec) 
Heartbeat CPU  0 instructions:   69000001 cycles:   29793058 heartbeat IPC: 2.05499 cumulative IPC: 2.31598 (Simulation time: 0 hr 1 min 16 sec) 
Heartbeat CPU  0 instructions:   70000001 cycles:   30201122 heartbeat IPC: 2.45060 cumulative IPC: 2.31779 (Simulation time: 0 hr 1 min 17 sec) 
Heartbeat CPU  0 instructions:   71000001 cycles:   30568336 heartbeat IPC: 2.72321 cumulative IPC: 2.32266 (Simulation time: 0 hr 1 min 18 sec) 
Heartbeat CPU  0 instructions:   72000000 cycles:   30983704 heartbeat IPC: 2.40750 cumulative IPC: 2.32380 (Simulation time: 0 hr 1 min 19 sec) 
Heartbeat CPU  0 instructions:   73000000 cycles:   31440235 heartbeat IPC: 2.19043 cumulative IPC: 2.32187 (Simulation time: 0 hr 1 min 20 sec) 
Heartbeat CPU  0 instructions:   74000002 cycles:   31895310 heartbeat IPC: 2.19744 cumulative IPC: 2.32009 (Simulation time: 0 hr 1 min 21 sec) 
Heartbeat CPU  0 instructions:   75000002 cycles:   32383380 heartbeat IPC: 2.04889 cumulative IPC: 2.31600 (Simulation time: 0 hr 1 min 22 sec) 
Heartbeat CPU  0 instructions:   76000000 cycles:   32800775 heartbeat IPC: 2.39581 cumulative IPC: 2.31702 (Simulation time: 0 hr 1 min 23 sec) 
Heartbeat CPU  0 instructions:   77000003 cycles:   33167968 heartbeat IPC: 2.72337 cumulative IPC: 2.32152 (Simulation time: 0 hr 1 min 24 sec) 
Heartbeat CPU  0 instructions:   78000002 cycles:   33575883 heartbeat IPC: 2.45149 cumulative IPC: 2.32310 (Simulation time: 0 hr 1 min 26 sec) 
Heartbeat CPU  0 instructions:   79000000 cycles:   34030803 heartbeat IPC: 2.19818 cumulative IPC: 2.32143 (Simulation time: 0 hr 1 min 27 sec) 
Heartbeat CPU  0 instructions:   80000000 cycles:   34487415 heartbeat IPC: 2.19004 cumulative IPC: 2.31969 (Simulation time: 0 hr 1 min 28 sec) 
Heartbeat CPU  0 instructions:   81000001 cycles:   34946128 heartbeat IPC: 2.18001 cumulative IPC: 2.31785 (Simulation time: 0 hr 1 min 29 sec) 
Heartbeat CPU  0 instructions:   82000001 cycles:   35431693 heartbeat IPC: 2.05946 cumulative IPC: 2.31431 (Simulation time: 0 hr 1 min 30 sec) 
Heartbeat CPU  0 instructions:   83000001 cycles:   35802701 heartbeat IPC: 2.69536 cumulative IPC: 2.31826 (Simulation time: 0 hr 1 min 31 sec) 
Heartbeat CPU  0 instructions:   84000000 cycles:   36170649 heartbeat IPC: 2.71777 cumulative IPC: 2.32232 (Simulation time: 0 hr 1 min 32 sec) 
Heartbeat CPU  0 instructions:   85000003 cycles:   36625918 heartbeat IPC: 2.19651 cumulative IPC: 2.32076 (Simulation time: 0 hr 1 min 33 sec) 
Heartbeat CPU  0 instructions:   86000001 cycles:   37081254 heartbeat IPC: 2.19618 cumulative IPC: 2.31923 (Simulation time: 0 hr 1 min 34 sec) 
Heartbeat CPU  0 instructions:   87000003 cycles:   37538076 heartbeat IPC: 2.18904 cumulative IPC: 2.31765 (Simulation time: 0 hr 1 min 35 sec) 
Heartbeat CPU  0 instructions:   88000000 cycles:   38027217 heartbeat IPC: 2.04439 cumulative IPC: 2.31413 (Simulation time: 0 hr 1 min 36 sec) 
Heartbeat CPU  0 instructions:   89000002 cycles:   38429308 heartbeat IPC: 2.48700 cumulative IPC: 2.31594 (Simulation time: 0 hr 1 min 37 sec) 
Heartbeat CPU  0 instructions:   90000002 cycles:   38796468 heartbeat IPC: 2.72361 cumulative IPC: 2.31980 (Simulation time: 0 hr 1 min 39 sec) 
Heartbeat CPU  0 instructions:   91000002 cycles:   39217108 heartbeat IPC: 2.37733 cumulative IPC: 2.32042 (Simulation time: 0 hr 1 min 40 sec) 
Heartbeat CPU  0 instructions:   92000000 cycles:   39670296 heartbeat IPC: 2.20659 cumulative IPC: 2.31912 (Simulation time: 0 hr 1 min 41 sec) 
Heartbeat CPU  0 instructions:   93000002 cycles:   40126517 heartbeat IPC: 2.19192 cumulative IPC: 2.31767 (Simulation time: 0 hr 1 min 42 sec) 
Heartbeat CPU  0 instructions:   94000001 cycles:   40614163 heartbeat IPC: 2.05067 cumulative IPC: 2.31446 (Simulation time: 0 hr 1 min 43 sec) 
Heartbeat CPU  0 instructions:   95000003 cycles:   40985802 heartbeat IPC: 2.69079 cumulative IPC: 2.31788 (Simulation time: 0 hr 1 min 44 sec) 
Heartbeat CPU  0 instructions:   96000000 cycles:   41352889 heartbeat IPC: 2.72414 cumulative IPC: 2.32148 (Simulation time: 0 hr 1 min 45 sec) 
Heartbeat CPU  0 instructions:   97000001 cycles:   41798634 heartbeat IPC: 2.24344 cumulative IPC: 2.32065 (Simulation time: 0 hr 1 min 46 sec) 
Heartbeat CPU  0 instructions:   98000002 cycles:   42254747 heartbeat IPC: 2.19244 cumulative IPC: 2.31927 (Simulation time: 0 hr 1 min 47 sec) 
Heartbeat CPU  0 instructions:   99000003 cycles:   42740415 heartbeat IPC: 2.05902 cumulative IPC: 2.31631 (Simulation time: 0 hr 1 min 48 sec) 
Heartbeat CPU  0 instructions:  100000000 cycles:   43283967 heartbeat IPC: 1.83974 cumulative IPC: 2.31032 (Simulation time: 0 hr 1 min 50 sec) 

Warmup complete CPU  0 instructions:  100000001 cycles:   43283968 (Simulation time: 0 hr 1 min 50 sec) 

Heartbeat CPU  0 instructions:  101000001 cycles:   44135169 heartbeat IPC: 1.17481 cumulative IPC: 1.17481 (Simulation time: 0 hr 1 min 51 sec) 
Heartbeat CPU  0 instructions:  102000003 cycles:   44945090 heartbeat IPC: 1.23469 cumulative IPC: 1.20401 (Simulation time: 0 hr 1 min 52 sec) 
Heartbeat CPU  0 instructions:  103000000 cycles:   45884013 heartbeat IPC: 1.06505 cumulative IPC: 1.15383 (Simulation time: 0 hr 1 min 54 sec) 
Heartbeat CPU  0 instructions:  104000000 cycles:   46896468 heartbeat IPC: 0.98770 cumulative IPC: 1.10727 (Simulation time: 0 hr 1 min 55 sec) 
Heartbeat CPU  0 instructions:  105000000 cycles:   47876271 heartbeat IPC: 1.02061 cumulative IPC: 1.08878 (Simulation time: 0 hr 1 min 56 sec) 
Heartbeat CPU  0 instructions:  106000002 cycles:   48615222 heartbeat IPC: 1.35327 cumulative IPC: 1.12544 (Simulation time: 0 hr 1 min 58 sec) 
Heartbeat CPU  0 instructions:  107000000 cycles:   49288316 heartbeat IPC: 1.48567 cumulative IPC: 1.16582 (Simulation time: 0 hr 1 min 59 sec) 
Heartbeat CPU  0 instructions:  108000000 cycles:   50262105 heartbeat IPC: 1.02692 cumulative IPC: 1.14644 (Simulation time: 0 hr 2 min 1 sec) 
Heartbeat CPU  0 instructions:  109000000 cycles:   51253912 heartbeat IPC: 1.00826 cumulative IPC: 1.12924 (Simulation time: 0 hr 2 min 2 sec) 
Heartbeat CPU  0 instructions:  110000001 cycles:   52112885 heartbeat IPC: 1.16418 cumulative IPC: 1.13264 (Simulation time: 0 hr 2 min 3 sec) 
Heartbeat CPU  0 instructions:  111000001 cycles:   52794277 heartbeat IPC: 1.46758 cumulative IPC: 1.15664 (Simulation time: 0 hr 2 min 5 sec) 
Heartbeat CPU  0 instructions:  112000000 cycles:   53603881 heartbeat IPC: 1.23517 cumulative IPC: 1.16280 (Simulation time: 0 hr 2 min 6 sec) 
Heartbeat CPU  0 instructions:  113000003 cycles:   54604497 heartbeat IPC: 0.99939 cumulative IPC: 1.14836 (Simulation time: 0 hr 2 min 7 sec) 
Heartbeat CPU  0 instructions:  114000001 cycles:   55579770 heartbeat IPC: 1.02535 cumulative IPC: 1.13860 (Simulation time: 0 hr 2 min 9 sec) 
Heartbeat CPU  0 instructions:  115000001 cycles:   56428629 heartbeat IPC: 1.17805 cumulative IPC: 1.14115 (Simulation time: 0 hr 2 min 10 sec) 
Heartbeat CPU  0 instructions:  116000000 cycles:   57113695 heartbeat IPC: 1.45971 cumulative IPC: 1.15693 (Simulation time: 0 hr 2 min 11 sec) 
Heartbeat CPU  0 instructions:  117000000 cycles:   58087279 heartbeat IPC: 1.02713 cumulative IPC: 1.14839 (Simulation time: 0 hr 2 min 13 sec) 
Heartbeat CPU  0 instructions:  118000003 cycles:   59021311 heartbeat IPC: 1.07063 cumulative IPC: 1.14378 (Simulation time: 0 hr 2 min 14 sec) 
Heartbeat CPU  0 instructions:  119000002 cycles:   59974937 heartbeat IPC: 1.04863 cumulative IPC: 1.13834 (Simulation time: 0 hr 2 min 15 sec) 
Heartbeat CPU  0 instructions:  120000000 cycles:   61105040 heartbeat IPC: 0.88487 cumulative IPC: 1.12227 (Simulation time: 0 hr 2 min 17 sec) 
Heartbeat CPU  0 instructions:  121000000 cycles:   61974669 heartbeat IPC: 1.14992 cumulative IPC: 1.12355 (Simulation time: 0 hr 2 min 18 sec) 
Heartbeat CPU  0 instructions:  122000001 cycles:   62641197 heartbeat IPC: 1.50031 cumulative IPC: 1.13653 (Simulation time: 0 hr 2 min 19 sec) 
Heartbeat CPU  0 instructions:  123000001 cycles:   63465984 heartbeat IPC: 1.21243 cumulative IPC: 1.13963 (Simulation time: 0 hr 2 min 21 sec) 
Heartbeat CPU  0 instructions:  124000000 cycles:   64454134 heartbeat IPC: 1.01199 cumulative IPC: 1.13367 (Simulation time: 0 hr 2 min 22 sec) 
Heartbeat CPU  0 instructions:  125000001 cycles:   65410074 heartbeat IPC: 1.04609 cumulative IPC: 1.12989 (Simulation time: 0 hr 2 min 23 sec) 
Heartbeat CPU  0 instructions:  126000003 cycles:   66380016 heartbeat IPC: 1.03099 cumulative IPC: 1.12573 (Simulation time: 0 hr 2 min 25 sec) 
Heartbeat CPU  0 instructions:  127000000 cycles:   67442477 heartbeat IPC: 0.94121 cumulative IPC: 1.11762 (Simulation time: 0 hr 2 min 26 sec) 
Heartbeat CPU  0 instructions:  128000000 cycles:   68105413 heartbeat IPC: 1.50844 cumulative IPC: 1.12806 (Simulation time: 0 hr 2 min 27 sec) 
Heartbeat CPU  0 instructions:  129000000 cycles:   68842760 heartbeat IPC: 1.35621 cumulative IPC: 1.13464 (Simulation time: 0 hr 2 min 29 sec) 
Heartbeat CPU  0 instructions:  130000000 cycles:   69867862 heartbeat IPC: 0.97551 cumulative IPC: 1.12850 (Simulation time: 0 hr 2 min 30 sec) 
Heartbeat CPU  0 instructions:  131000002 cycles:   70832870 heartbeat IPC: 1.03626 cumulative IPC: 1.12527 (Simulation time: 0 hr 2 min 31 sec) 
Heartbeat CPU  0 instructions:  132000000 cycles:   71924123 heartbeat IPC: 0.91638 cumulative IPC: 1.11731 (Simulation time: 0 hr 2 min 33 sec) 
Heartbeat CPU  0 instructions:  133000000 cycles:   72726582 heartbeat IPC: 1.24617 cumulative IPC: 1.12082 (Simulation time: 0 hr 2 min 34 sec) 
Heartbeat CPU  0 instructions:  134000002 cycles:   73402863 heartbeat IPC: 1.47868 cumulative IPC: 1.12886 (Simulation time: 0 hr 2 min 35 sec) 
Heartbeat CPU  0 instructions:  135000001 cycles:   74290296 heartbeat IPC: 1.12684 cumulative IPC: 1.12880 (Simulation time: 0 hr 2 min 37 sec) 
Heartbeat CPU  0 instructions:  136000000 cycles:   75278984 heartbeat IPC: 1.01144 cumulative IPC: 1.12518 (Simulation time: 0 hr 2 min 38 sec) 
Heartbeat CPU  0 instructions:  137000002 cycles:   76339770 heartbeat IPC: 0.94270 cumulative IPC: 1.11932 (Simulation time: 0 hr 2 min 40 sec) 
Heartbeat CPU  0 instructions:  138000002 cycles:   77121931 heartbeat IPC: 1.27851 cumulative IPC: 1.12300 (Simulation time: 0 hr 2 min 41 sec) 
Heartbeat CPU  0 instructions:  139000002 cycles:   77805219 heartbeat IPC: 1.46351 cumulative IPC: 1.12974 (Simulation time: 0 hr 2 min 42 sec) 
Heartbeat CPU  0 instructions:  140000000 cycles:   78727536 heartbeat IPC: 1.08422 cumulative IPC: 1.12855 (Simulation time: 0 hr 2 min 44 sec) 
Heartbeat CPU  0 instructions:  141000000 cycles:   79714217 heartbeat IPC: 1.01350 cumulative IPC: 1.12544 (Simulation time: 0 hr 2 min 45 sec) 
Heartbeat CPU  0 instructions:  142000001 cycles:   80755485 heartbeat IPC: 0.96037 cumulative IPC: 1.12085 (Simulation time: 0 hr 2 min 46 sec) 
Heartbeat CPU  0 instructions:  143000003 cycles:   81467724 heartbeat IPC: 1.40403 cumulative IPC: 1.12613 (Simulation time: 0 hr 2 min 48 sec) 
Heartbeat CPU  0 instructions:  144000000 cycles:   82153232 heartbeat IPC: 1.45877 cumulative IPC: 1.13200 (Simulation time: 0 hr 2 min 49 sec) 
Heartbeat CPU  0 instructions:  145000002 cycles:   83143722 heartbeat IPC: 1.00960 cumulative IPC: 1.12896 (Simulation time: 0 hr 2 min 50 sec) 
Heartbeat CPU  0 instructions:  146000002 cycles:   84136530 heartbeat IPC: 1.00724 cumulative IPC: 1.12600 (Simulation time: 0 hr 2 min 52 sec) 
Heartbeat CPU  0 instructions:  147000002 cycles:   85087900 heartbeat IPC: 1.05112 cumulative IPC: 1.12430 (Simulation time: 0 hr 2 min 53 sec) 
Heartbeat CPU  0 instructions:  148000000 cycles:   85760465 heartbeat IPC: 1.48684 cumulative IPC: 1.13004 (Simulation time: 0 hr 2 min 54 sec) 
Heartbeat CPU  0 instructions:  149000003 cycles:   86534708 heartbeat IPC: 1.29159 cumulative IPC: 1.13293 (Simulation time: 0 hr 2 min 56 sec) 
Heartbeat CPU  0 instructions:  150000003 cycles:   87545915 heartbeat IPC: 0.98892 cumulative IPC: 1.12964 (Simulation time: 0 hr 2 min 57 sec) 
Heartbeat CPU  0 instructions:  151000002 cycles:   88649755 heartbeat IPC: 0.90593 cumulative IPC: 1.12420 (Simulation time: 0 hr 2 min 58 sec) 
Heartbeat CPU  0 instructions:  152000000 cycles:   89541629 heartbeat IPC: 1.12123 cumulative IPC: 1.12414 (Simulation time: 0 hr 3 min 0 sec) 
Heartbeat CPU  0 instructions:  153000001 cycles:   90320615 heartbeat IPC: 1.28372 cumulative IPC: 1.12678 (Simulation time: 0 hr 3 min 1 sec) 
Heartbeat CPU  0 instructions:  154000003 cycles:   91019599 heartbeat IPC: 1.43065 cumulative IPC: 1.13123 (Simulation time: 0 hr 3 min 2 sec) 
Heartbeat CPU  0 instructions:  155000003 cycles:   91911616 heartbeat IPC: 1.12105 cumulative IPC: 1.13104 (Simulation time: 0 hr 3 min 4 sec) 
Heartbeat CPU  0 instructions:  156000000 cycles:   92908527 heartbeat IPC: 1.00310 cumulative IPC: 1.12847 (Simulation time: 0 hr 3 min 5 sec) 
Heartbeat CPU  0 instructions:  157000003 cycles:   93925371 heartbeat IPC: 0.98344 cumulative IPC: 1.12556 (Simulation time: 0 hr 3 min 6 sec) 
Heartbeat CPU  0 instructions:  158000002 cycles:   94620756 heartbeat IPC: 1.43805 cumulative IPC: 1.12979 (Simulation time: 0 hr 3 min 8 sec) 
Heartbeat CPU  0 instructions:  159000000 cycles:   95312360 heartbeat IPC: 1.44591 cumulative IPC: 1.13400 (Simulation time: 0 hr 3 min 9 sec) 
Heartbeat CPU  0 instructions:  160000000 cycles:   96346824 heartbeat IPC: 0.96668 cumulative IPC: 1.13073 (Simulation time: 0 hr 3 min 10 sec) 
Heartbeat CPU  0 instructions:  161000000 cycles:   97389879 heartbeat IPC: 0.95872 cumulative IPC: 1.12742 (Simulation time: 0 hr 3 min 12 sec) 
Heartbeat CPU  0 instructions:  162000003 cycles:   98193272 heartbeat IPC: 1.24472 cumulative IPC: 1.12913 (Simulation time: 0 hr 3 min 13 sec) 
Heartbeat CPU  0 instructions:  163000002 cycles:   98872205 heartbeat IPC: 1.47290 cumulative IPC: 1.13333 (Simulation time: 0 hr 3 min 14 sec) 
Heartbeat CPU  0 instructions:  164000000 cycles:   99740337 heartbeat IPC: 1.15190 cumulative IPC: 1.13362 (Simulation time: 0 hr 3 min 16 sec) 
Heartbeat CPU  0 instructions:  165000000 cycles:  100736363 heartbeat IPC: 1.00399 cumulative IPC: 1.13137 (Simulation time: 0 hr 3 min 17 sec) 
Heartbeat CPU  0 instructions:  166000002 cycles:  101740101 heartbeat IPC: 0.99628 cumulative IPC: 1.12905 (Simulation time: 0 hr 3 min 18 sec) 
Heartbeat CPU  0 instructions:  167000001 cycles:  102439920 heartbeat IPC: 1.42894 cumulative IPC: 1.13260 (Simulation time: 0 hr 3 min 20 sec) 
Heartbeat CPU  0 instructions:  168000000 cycles:  103131127 heartbeat IPC: 1.44674 cumulative IPC: 1.13623 (Simulation time: 0 hr 3 min 21 sec) 
Heartbeat CPU  0 instructions:  169000000 cycles:  104163654 heartbeat IPC: 0.96850 cumulative IPC: 1.13338 (Simulation time: 0 hr 3 min 22 sec) 
Heartbeat CPU  0 instructions:  170000000 cycles:  105207639 heartbeat IPC: 0.95787 cumulative IPC: 1.13042 (Simulation time: 0 hr 3 min 24 sec) 
Heartbeat CPU  0 instructions:  171000001 cycles:  106028193 heartbeat IPC: 1.21869 cumulative IPC: 1.13158 (Simulation time: 0 hr 3 min 25 sec) 
Heartbeat CPU  0 instructions:  172000000 cycles:  106716409 heartbeat IPC: 1.45303 cumulative IPC: 1.13507 (Simulation time: 0 hr 3 min 26 sec) 
Heartbeat CPU  0 instructions:  173000001 cycles:  107585964 heartbeat IPC: 1.15001 cumulative IPC: 1.13527 (Simulation time: 0 hr 3 min 28 sec) 
Heartbeat CPU  0 instructions:  174000000 cycles:  108590734 heartbeat IPC: 0.99525 cumulative IPC: 1.13311 (Simulation time: 0 hr 3 min 29 sec) 
Heartbeat CPU  0 instructions:  175000002 cycles:  109611973 heartbeat IPC: 0.97920 cumulative IPC: 1.13074 (Simulation time: 0 hr 3 min 31 sec) 
Heartbeat CPU  0 instructions:  176000000 cycles:  110309631 heartbeat IPC: 1.43336 cumulative IPC: 1.13389 (Simulation time: 0 hr 3 min 32 sec) 
Heartbeat CPU  0 instructions:  177000000 cycles:  110991684 heartbeat IPC: 1.46616 cumulative IPC: 1.13724 (Simulation time: 0 hr 3 min 33 sec) 
Heartbeat CPU  0 instructions:  178000003 cycles:  112012463 heartbeat IPC: 0.97965 cumulative IPC: 1.13490 (Simulation time: 0 hr 3 min 35 sec) 
Heartbeat CPU  0 instructions:  179000000 cycles:  113068065 heartbeat IPC: 0.94732 cumulative IPC: 1.13206 (Simulation time: 0 hr 3 min 36 sec) 
Heartbeat CPU  0 instructions:  180000000 cycles:  113878811 heartbeat IPC: 1.23343 cumulative IPC: 1.13323 (Simulation time: 0 hr 3 min 37 sec) 
Heartbeat CPU  0 instructions:  181000002 cycles:  114555343 heartbeat IPC: 1.47813 cumulative IPC: 1.13650 (Simulation time: 0 hr 3 min 39 sec) 
Heartbeat CPU  0 instructions:  182000001 cycles:  115415732 heartbeat IPC: 1.16226 cumulative IPC: 1.13681 (Simulation time: 0 hr 3 min 40 sec) 
Heartbeat CPU  0 instructions:  183000002 cycles:  116401451 heartbeat IPC: 1.01449 cumulative IPC: 1.13516 (Simulation time: 0 hr 3 min 41 sec) 
Heartbeat CPU  0 instructions:  184000000 cycles:  117426964 heartbeat IPC: 0.97512 cumulative IPC: 1.13295 (Simulation time: 0 hr 3 min 43 sec) 
Heartbeat CPU  0 instructions:  185000003 cycles:  118131354 heartbeat IPC: 1.41967 cumulative IPC: 1.13564 (Simulation time: 0 hr 3 min 44 sec) 
Heartbeat CPU  0 instructions:  186000002 cycles:  118819450 heartbeat IPC: 1.45328 cumulative IPC: 1.13854 (Simulation time: 0 hr 3 min 45 sec) 
Heartbeat CPU  0 instructions:  187000002 cycles:  119845970 heartbeat IPC: 0.97417 cumulative IPC: 1.13633 (Simulation time: 0 hr 3 min 47 sec) 
Heartbeat CPU  0 instructions:  188000000 cycles:  120899516 heartbeat IPC: 0.94917 cumulative IPC: 1.13379 (Simulation time: 0 hr 3 min 48 sec) 
Heartbeat CPU  0 instructions:  189000003 cycles:  121729569 heartbeat IPC: 1.20475 cumulative IPC: 1.13454 (Simulation time: 0 hr 3 min 49 sec) 
Heartbeat CPU  0 instructions:  190000001 cycles:  122406728 heartbeat IPC: 1.47676 cumulative IPC: 1.13747 (Simulation time: 0 hr 3 min 51 sec) 
Heartbeat CPU  0 instructions:  191000003 cycles:  123265959 heartbeat IPC: 1.16383 cumulative IPC: 1.13776 (Simulation time: 0 hr 3 min 52 sec) 
Heartbeat CPU  0 instructions:  192000000 cycles:  124258506 heartbeat IPC: 1.00751 cumulative IPC: 1.13616 (Simulation time: 0 hr 3 min 53 sec) 
Heartbeat CPU  0 instructions:  193000002 cycles:  125290664 heartbeat IPC: 0.96885 cumulative IPC: 1.13405 (Simulation time: 0 hr 3 min 55 sec) 
Heartbeat CPU  0 instructions:  194000002 cycles:  125990893 heartbeat IPC: 1.42810 cumulative IPC: 1.13654 (Simulation time: 0 hr 3 min 56 sec) 
Heartbeat CPU  0 instructions:  195000001 cycles:  126683940 heartbeat IPC: 1.44290 cumulative IPC: 1.13909 (Simulation time: 0 hr 3 min 57 sec) 
Heartbeat CPU  0 instructions:  196000000 cycles:  127705830 heartbeat IPC: 0.97858 cumulative IPC: 1.13715 (Simulation time: 0 hr 3 min 59 sec) 
Heartbeat CPU  0 instructions:  197000002 cycles:  128769680 heartbeat IPC: 0.93998 cumulative IPC: 1.13469 (Simulation time: 0 hr 4 min 0 sec) 
Heartbeat CPU  0 instructions:  198000002 cycles:  129580211 heartbeat IPC: 1.23376 cumulative IPC: 1.13562 (Simulation time: 0 hr 4 min 1 sec) 
Heartbeat CPU  0 instructions:  199000003 cycles:  130255404 heartbeat IPC: 1.48106 cumulative IPC: 1.13830 (Simulation time: 0 hr 4 min 3 sec) 
Heartbeat CPU  0 instructions:  200000000 cycles:  131104287 heartbeat IPC: 1.17802 cumulative IPC: 1.13869 (Simulation time: 0 hr 4 min 4 sec) 
Finished CPU 0 instructions: 100000003 cycles: 87820327 cumulative IPC: 1.13869 (Simulation time: 0 hr 4 min 4 sec) 

ChampSim completed all CPUs

[ROI Statistics]
Core_0_instructions 100000003
Core_0_cycles 87820327
Core_0_IPC 1.13869

Core_0_branch_prediction_accuracy 97.76309
Core_0_branch_MPKI 1.93474
Core_0_average_ROB_occupancy_at_mispredict 143.82214

Core_0_L1D_total_access 28033639
Core_0_L1D_total_hit 26372105
Core_0_L1D_total_miss 1661534
Core_0_L1D_loads 14577900
Core_0_L1D_load_hit 14080984
Core_0_L1D_load_miss 496916
Core_0_L1D_RFOs 1307118
Core_0_L1D_RFO_hit 1218520
Core_0_L1D_RFO_miss 88598
Core_0_L1D_prefetches 12148621
Core_0_L1D_prefetch_hit 11072601
Core_0_L1D_prefetch_miss 1076020
Core_0_L1D_writebacks 0
Core_0_L1D_writeback_hit 0
Core_0_L1D_writeback_miss 0
Core_0_L1D_prefetch_requested 39127086
Core_0_L1D_prefetch_issued 38704156
Core_0_L1D_prefetch_useful 1881136
Core_0_L1D_prefetch_useless 522818
Core_0_L1D_prefetch_late 179810
Core_0_L1D_average_miss_latency 9215003.23915

Core_0_L1I_total_access 24326022
Core_0_L1I_total_hit 24325721
Core_0_L1I_total_miss 301
Core_0_L1I_loads 24326022
Core_0_L1I_load_hit 24325721
Core_0_L1I_load_miss 301
Core_0_L1I_RFOs 0
Core_0_L1I_RFO_hit 0
Core_0_L1I_RFO_miss 0
Core_0_L1I_prefetches 0
Core_0_L1I_prefetch_hit 0
Core_0_L1I_prefetch_miss 0
Core_0_L1I_writebacks 0
Core_0_L1I_writeback_hit 0
Core_0_L1I_writeback_miss 0
Core_0_L1I_prefetch_requested 0
Core_0_L1I_prefetch_issued 0
Core_0_L1I_prefetch_useful 0
Core_0_L1I_prefetch_useless 0
Core_0_L1I_prefetch_late 0
Core_0_L1I_average_miss_latency 153.65449

Core_0_L2C_total_access 2504652
Core_0_L2C_total_hit 1146235
Core_0_L2C_total_miss 1358417
Core_0_L2C_loads 323363
Core_0_L2C_load_hit 185952
Core_0_L2C_load_miss 137411
Core_0_L2C_RFOs 88576
Core_0_L2C_RFO_hit 9369
Core_0_L2C_RFO_miss 79207
Core_0_L2C_prefetches 1980790
Core_0_L2C_prefetch_hit 839299
Core_0_L2C_prefetch_miss 1141491
Core_0_L2C_writebacks 111923
Core_0_L2C_writeback_hit 111615
Core_0_L2C_writeback_miss 308
Core_0_L2C_prefetch_requested 2863544
Core_0_L2C_prefetch_issued 2813775
Core_0_L2C_prefetch_useful 86508
Core_0_L2C_prefetch_useless 2240081
Core_0_L2C_prefetch_late 5625
Core_0_L2C_average_miss_latency 125.91645

Core_0_LLC_total_access 1983304
Core_0_LLC_total_hit 661555
Core_0_LLC_total_miss 1321749
Core_0_LLC_loads 132075
Core_0_LLC_load_hit 42833
Core_0_LLC_load_miss 89242
Core_0_LLC_RFOs 79207
Core_0_LLC_RFO_hit 12974
Core_0_LLC_RFO_miss 66233
Core_0_LLC_prefetches 1666793
Core_0_LLC_prefetch_hit 502076
Core_0_LLC_prefetch_miss 1164717
Core_0_LLC_writebacks 105229
Core_0_LLC_writeback_hit 103672
Core_0_LLC_writeback_miss 1557
Core_0_LLC_prefetch_requested 2317228
Core_0_LLC_prefetch_issued 2280397
Core_0_LLC_prefetch_useful 63080
Core_0_LLC_prefetch_useless 2279332
Core_0_LLC_prefetch_late 961
Core_0_LLC_average_miss_latency 168.70071

Core_0_major_page_fault 0
Core_0_minor_page_fault 3151

CPU 0 L1D next line prefetcher final stats
CPU 0 L2C next line prefetcher final stats
LLC Next Line Prefetcher Final Stats: none
Channel_0_RQ_row_buffer_hit 723301
Channel_0_RQ_row_buffer_miss 596819
Channel_0_WQ_row_buffer_hit 44554
Channel_0_WQ_row_buffer_miss 55729
Channel_0_WQ_full 0
Channel_0_dbus_congested 448296

avg_congested_cycle 8
