*************************************************
   ChampSim Multicore Out-of-Order Simulator
   Last compiled: Dec 22 2023 14:08:33
*************************************************

trace_0 ./test_trace/482.sphinx3-1100B.champsimtrace.xz
CPU 0 L1D next line prefetcher
CPU 0 L2C IP-based stride prefetcher
Initialize DRRIP state
Assign rand_sets[0]: 454  LLC: 2048
rand_sets[0]: 454
Assign rand_sets[1]: 1662  LLC: 2048
rand_sets[1]: 1662
Assign rand_sets[2]: 1921  LLC: 2048
rand_sets[2]: 1921
Assign rand_sets[3]: 1131  LLC: 2048
rand_sets[3]: 1131
Assign rand_sets[4]: 331  LLC: 2048
rand_sets[4]: 331
Assign rand_sets[5]: 1531  LLC: 2048
rand_sets[5]: 1531
Assign rand_sets[6]: 482  LLC: 2048
rand_sets[6]: 482
Assign rand_sets[7]: 1275  LLC: 2048
rand_sets[7]: 1275
Assign rand_sets[8]: 1876  LLC: 2048
rand_sets[8]: 1876
Assign rand_sets[9]: 2038  LLC: 2048
rand_sets[9]: 2038
Assign rand_sets[10]: 701  LLC: 2048
rand_sets[10]: 701
Assign rand_sets[11]: 479  LLC: 2048
rand_sets[11]: 479
Assign rand_sets[12]: 892  LLC: 2048
rand_sets[12]: 892
Assign rand_sets[13]: 1820  LLC: 2048
rand_sets[13]: 1820
Assign rand_sets[14]: 1505  LLC: 2048
rand_sets[14]: 1505
Assign rand_sets[15]: 1159  LLC: 2048
rand_sets[15]: 1159
Assign rand_sets[16]: 513  LLC: 2048
rand_sets[16]: 513
Assign rand_sets[17]: 703  LLC: 2048
rand_sets[17]: 703
Assign rand_sets[18]: 561  LLC: 2048
rand_sets[18]: 561
Assign rand_sets[19]: 990  LLC: 2048
rand_sets[19]: 990
Assign rand_sets[20]: 342  LLC: 2048
rand_sets[20]: 342
Assign rand_sets[21]: 882  LLC: 2048
rand_sets[21]: 882
Assign rand_sets[22]: 15  LLC: 2048
rand_sets[22]: 15
Assign rand_sets[23]: 71  LLC: 2048
rand_sets[23]: 71
Assign rand_sets[24]: 1127  LLC: 2048
rand_sets[24]: 1127
Assign rand_sets[25]: 1382  LLC: 2048
rand_sets[25]: 1382
Assign rand_sets[26]: 647  LLC: 2048
rand_sets[26]: 647
Assign rand_sets[27]: 857  LLC: 2048
rand_sets[27]: 857
Assign rand_sets[28]: 1450  LLC: 2048
rand_sets[28]: 1450
Assign rand_sets[29]: 1160  LLC: 2048
rand_sets[29]: 1160
Assign rand_sets[30]: 1852  LLC: 2048
rand_sets[30]: 1852
Assign rand_sets[31]: 1881  LLC: 2048
rand_sets[31]: 1881
Assign rand_sets[32]: 1770  LLC: 2048
rand_sets[32]: 1770
Assign rand_sets[33]: 1622  LLC: 2048
rand_sets[33]: 1622
Assign rand_sets[34]: 275  LLC: 2048
rand_sets[34]: 275
Assign rand_sets[35]: 635  LLC: 2048
rand_sets[35]: 635
Assign rand_sets[36]: 466  LLC: 2048
rand_sets[36]: 466
Assign rand_sets[37]: 1413  LLC: 2048
rand_sets[37]: 1413
Assign rand_sets[38]: 417  LLC: 2048
rand_sets[38]: 417
Assign rand_sets[39]: 472  LLC: 2048
rand_sets[39]: 472
Assign rand_sets[40]: 1340  LLC: 2048
rand_sets[40]: 1340
Assign rand_sets[41]: 852  LLC: 2048
rand_sets[41]: 852
Assign rand_sets[42]: 1365  LLC: 2048
rand_sets[42]: 1365
Assign rand_sets[43]: 47  LLC: 2048
rand_sets[43]: 47
Assign rand_sets[44]: 823  LLC: 2048
rand_sets[44]: 823
Assign rand_sets[45]: 686  LLC: 2048
rand_sets[45]: 686
Assign rand_sets[46]: 1637  LLC: 2048
rand_sets[46]: 1637
Assign rand_sets[47]: 1115  LLC: 2048
rand_sets[47]: 1115
Assign rand_sets[48]: 986  LLC: 2048
rand_sets[48]: 986
Assign rand_sets[49]: 258  LLC: 2048
rand_sets[49]: 258
Assign rand_sets[50]: 633  LLC: 2048
rand_sets[50]: 633
Assign rand_sets[51]: 920  LLC: 2048
rand_sets[51]: 920
Assign rand_sets[52]: 204  LLC: 2048
rand_sets[52]: 204
Assign rand_sets[53]: 227  LLC: 2048
rand_sets[53]: 227
Assign rand_sets[54]: 1818  LLC: 2048
rand_sets[54]: 1818
Assign rand_sets[55]: 886  LLC: 2048
rand_sets[55]: 886
Assign rand_sets[56]: 1422  LLC: 2048
rand_sets[56]: 1422
Assign rand_sets[57]: 607  LLC: 2048
rand_sets[57]: 607
Assign rand_sets[58]: 217  LLC: 2048
rand_sets[58]: 217
Assign rand_sets[59]: 1945  LLC: 2048
rand_sets[59]: 1945
Assign rand_sets[60]: 143  LLC: 2048
rand_sets[60]: 143
Assign rand_sets[61]: 1311  LLC: 2048
rand_sets[61]: 1311
Assign rand_sets[62]: 319  LLC: 2048
rand_sets[62]: 319
Assign rand_sets[63]: 1846  LLC: 2048
rand_sets[63]: 1846
LLC Next Line Prefetcher
warmup_instructions 100000000
simulation_instructions 100000000
champsim_seed 260

num_cpus 1
cpu_freq 4000
dram_io_freq 2400
page_size 4096
block_size 64
max_read_per_cycle 8
max_fill_per_cycle 1
dram_channels 1
dram_ranks 1
dram_banks 8
dram_rows 65536
dram_columns 128
dram_row_size 8
dram_size 4096
dram_pages 1048576

fetch_width 6
decode_width 6
exec_width 4
lq_width 2
sq_width 2
retire_width 4
scheduler_size 128
branch_mispredict_penalty 20
rob_size 256
lq_size 72
sq_size 56
num_instr_destinations_sparc 4
num_instr_destinations 2
num_instr_sources 4

itlb_set 16
itlb_way 8
itlb_rq_size 16
itlb_wq_size 16
itlb_pq_size 0
itlb_mshr_size 8
itlb_latency 1

dtlb_set 16
dtlb_way 4
dtlb_rq_size 16
dtlb_wq_size 16
dtlb_pq_size 0
dtlb_mshr_size 8
dtlb_latency 1

stlb_set 128
stlb_way 12
stlb_rq_size 32
stlb_wq_size 32
stlb_pq_size 0
stlb_mshr_size 16
stlb_latency 8

l1i_size 32
l1i_set 64
l1i_way 8
l1i_rq_size 64
l1i_wq_size 64
l1i_pq_size 8
l1i_mshr_size 8
l1i_latency 1

l1d_size 32
l1d_set 64
l1d_way 8
l1d_rq_size 64
l1d_wq_size 64
l1d_pq_size 8
l1d_mshr_size 16
l1d_latency 4

l2c_size 512
l2c_set 1024
l2c_way 8
l2c_rq_size 32
l2c_wq_size 32
l2c_pq_size 16
l2c_mshr_size 32
l2c_latency 10

llc_size 2048
llc_set 2048
llc_way 16
llc_rq_size 32
llc_wq_size 32
llc_pq_size 32
llc_mshr_size 64
llc_latency 20

dram_channel_width 8
dram_wq_size 64
dram_rq_size 64
tRP 15
tRCD 15
tCAS 12.5
dram_dbus_turn_around_time 30
dram_write_high_wm 56
dram_write_low_wm 48
min_dram_writes_per_switch 16
dram_mtps 2400
dram_dbus_return_time 13


Heartbeat CPU  0 instructions:    1000001 cycles:     367557 heartbeat IPC: 2.72067 cumulative IPC: 2.72067 (Simulation time: 0 hr 0 min 1 sec) 
Heartbeat CPU  0 instructions:    2000003 cycles:     794599 heartbeat IPC: 2.34169 cumulative IPC: 2.51700 (Simulation time: 0 hr 0 min 2 sec) 
Heartbeat CPU  0 instructions:    3000001 cycles:    1251912 heartbeat IPC: 2.18668 cumulative IPC: 2.39634 (Simulation time: 0 hr 0 min 3 sec) 
Heartbeat CPU  0 instructions:    4000000 cycles:    1733909 heartbeat IPC: 2.07470 cumulative IPC: 2.30693 (Simulation time: 0 hr 0 min 5 sec) 
Heartbeat CPU  0 instructions:    5000000 cycles:    2175249 heartbeat IPC: 2.26583 cumulative IPC: 2.29859 (Simulation time: 0 hr 0 min 6 sec) 
Heartbeat CPU  0 instructions:    6000001 cycles:    2542360 heartbeat IPC: 2.72397 cumulative IPC: 2.36001 (Simulation time: 0 hr 0 min 7 sec) 
Heartbeat CPU  0 instructions:    7000000 cycles:    2933123 heartbeat IPC: 2.55909 cumulative IPC: 2.38653 (Simulation time: 0 hr 0 min 8 sec) 
Heartbeat CPU  0 instructions:    8000000 cycles:    3391463 heartbeat IPC: 2.18179 cumulative IPC: 2.35886 (Simulation time: 0 hr 0 min 9 sec) 
Heartbeat CPU  0 instructions:    9000000 cycles:    3849184 heartbeat IPC: 2.18474 cumulative IPC: 2.33816 (Simulation time: 0 hr 0 min 11 sec) 
Heartbeat CPU  0 instructions:   10000000 cycles:    4338704 heartbeat IPC: 2.04282 cumulative IPC: 2.30484 (Simulation time: 0 hr 0 min 12 sec) 
Heartbeat CPU  0 instructions:   11000001 cycles:    4710166 heartbeat IPC: 2.69207 cumulative IPC: 2.33537 (Simulation time: 0 hr 0 min 13 sec) 
Heartbeat CPU  0 instructions:   12000000 cycles:    5077216 heartbeat IPC: 2.72442 cumulative IPC: 2.36350 (Simulation time: 0 hr 0 min 14 sec) 
Heartbeat CPU  0 instructions:   13000001 cycles:    5526068 heartbeat IPC: 2.22791 cumulative IPC: 2.35249 (Simulation time: 0 hr 0 min 15 sec) 
Heartbeat CPU  0 instructions:   14000000 cycles:    5983881 heartbeat IPC: 2.18430 cumulative IPC: 2.33962 (Simulation time: 0 hr 0 min 16 sec) 
Heartbeat CPU  0 instructions:   15000000 cycles:    6465805 heartbeat IPC: 2.07502 cumulative IPC: 2.31990 (Simulation time: 0 hr 0 min 17 sec) 
Heartbeat CPU  0 instructions:   16000000 cycles:    6874684 heartbeat IPC: 2.44571 cumulative IPC: 2.32738 (Simulation time: 0 hr 0 min 19 sec) 
Heartbeat CPU  0 instructions:   17000003 cycles:    7241852 heartbeat IPC: 2.72356 cumulative IPC: 2.34747 (Simulation time: 0 hr 0 min 20 sec) 
Heartbeat CPU  0 instructions:   18000003 cycles:    7653502 heartbeat IPC: 2.42925 cumulative IPC: 2.35187 (Simulation time: 0 hr 0 min 21 sec) 
Heartbeat CPU  0 instructions:   19000003 cycles:    8111255 heartbeat IPC: 2.18458 cumulative IPC: 2.34242 (Simulation time: 0 hr 0 min 22 sec) 
Heartbeat CPU  0 instructions:   20000000 cycles:    8579265 heartbeat IPC: 2.13670 cumulative IPC: 2.33120 (Simulation time: 0 hr 0 min 23 sec) 
Heartbeat CPU  0 instructions:   21000002 cycles:    9037366 heartbeat IPC: 2.18293 cumulative IPC: 2.32369 (Simulation time: 0 hr 0 min 24 sec) 
Heartbeat CPU  0 instructions:   22000003 cycles:    9404379 heartbeat IPC: 2.72470 cumulative IPC: 2.33934 (Simulation time: 0 hr 0 min 26 sec) 
Heartbeat CPU  0 instructions:   23000001 cycles:    9784745 heartbeat IPC: 2.62904 cumulative IPC: 2.35060 (Simulation time: 0 hr 0 min 27 sec) 
Heartbeat CPU  0 instructions:   24000000 cycles:   10239767 heartbeat IPC: 2.19769 cumulative IPC: 2.34380 (Simulation time: 0 hr 0 min 28 sec) 
Heartbeat CPU  0 instructions:   25000002 cycles:   10695001 heartbeat IPC: 2.19668 cumulative IPC: 2.33754 (Simulation time: 0 hr 0 min 29 sec) 
Heartbeat CPU  0 instructions:   26000002 cycles:   11173245 heartbeat IPC: 2.09098 cumulative IPC: 2.32699 (Simulation time: 0 hr 0 min 30 sec) 
Heartbeat CPU  0 instructions:   27000001 cycles:   11565447 heartbeat IPC: 2.54970 cumulative IPC: 2.33454 (Simulation time: 0 hr 0 min 31 sec) 
Heartbeat CPU  0 instructions:   28000000 cycles:   11932333 heartbeat IPC: 2.72564 cumulative IPC: 2.34657 (Simulation time: 0 hr 0 min 32 sec) 
Heartbeat CPU  0 instructions:   29000001 cycles:   12368216 heartbeat IPC: 2.29420 cumulative IPC: 2.34472 (Simulation time: 0 hr 0 min 34 sec) 
Heartbeat CPU  0 instructions:   30000003 cycles:   12821535 heartbeat IPC: 2.20596 cumulative IPC: 2.33981 (Simulation time: 0 hr 0 min 35 sec) 
Heartbeat CPU  0 instructions:   31000002 cycles:   13275239 heartbeat IPC: 2.20408 cumulative IPC: 2.33517 (Simulation time: 0 hr 0 min 36 sec) 
Heartbeat CPU  0 instructions:   32000000 cycles:   13758112 heartbeat IPC: 2.07093 cumulative IPC: 2.32590 (Simulation time: 0 hr 0 min 37 sec) 
Heartbeat CPU  0 instructions:   33000003 cycles:   14158237 heartbeat IPC: 2.49923 cumulative IPC: 2.33080 (Simulation time: 0 hr 0 min 38 sec) 
Heartbeat CPU  0 instructions:   34000003 cycles:   14525153 heartbeat IPC: 2.72542 cumulative IPC: 2.34077 (Simulation time: 0 hr 0 min 39 sec) 
Heartbeat CPU  0 instructions:   35000000 cycles:   14951839 heartbeat IPC: 2.34364 cumulative IPC: 2.34085 (Simulation time: 0 hr 0 min 40 sec) 
Heartbeat CPU  0 instructions:   36000000 cycles:   15405252 heartbeat IPC: 2.20549 cumulative IPC: 2.33687 (Simulation time: 0 hr 0 min 41 sec) 
Heartbeat CPU  0 instructions:   37000000 cycles:   15858840 heartbeat IPC: 2.20464 cumulative IPC: 2.33308 (Simulation time: 0 hr 0 min 43 sec) 
Heartbeat CPU  0 instructions:   38000003 cycles:   16346285 heartbeat IPC: 2.05152 cumulative IPC: 2.32469 (Simulation time: 0 hr 0 min 44 sec) 
Heartbeat CPU  0 instructions:   39000001 cycles:   16752573 heartbeat IPC: 2.46130 cumulative IPC: 2.32800 (Simulation time: 0 hr 0 min 45 sec) 
Heartbeat CPU  0 instructions:   40000000 cycles:   17119604 heartbeat IPC: 2.72456 cumulative IPC: 2.33650 (Simulation time: 0 hr 0 min 46 sec) 
Heartbeat CPU  0 instructions:   41000003 cycles:   17539424 heartbeat IPC: 2.38198 cumulative IPC: 2.33759 (Simulation time: 0 hr 0 min 47 sec) 
Heartbeat CPU  0 instructions:   42000000 cycles:   17997007 heartbeat IPC: 2.18539 cumulative IPC: 2.33372 (Simulation time: 0 hr 0 min 48 sec) 
Heartbeat CPU  0 instructions:   43000001 cycles:   18453016 heartbeat IPC: 2.19294 cumulative IPC: 2.33024 (Simulation time: 0 hr 0 min 49 sec) 
Heartbeat CPU  0 instructions:   44000000 cycles:   18942868 heartbeat IPC: 2.04143 cumulative IPC: 2.32277 (Simulation time: 0 hr 0 min 50 sec) 
Heartbeat CPU  0 instructions:   45000002 cycles:   19353858 heartbeat IPC: 2.43315 cumulative IPC: 2.32512 (Simulation time: 0 hr 0 min 52 sec) 
Heartbeat CPU  0 instructions:   46000000 cycles:   19721058 heartbeat IPC: 2.72331 cumulative IPC: 2.33253 (Simulation time: 0 hr 0 min 53 sec) 
Heartbeat CPU  0 instructions:   47000002 cycles:   20133833 heartbeat IPC: 2.42263 cumulative IPC: 2.33438 (Simulation time: 0 hr 0 min 54 sec) 
Heartbeat CPU  0 instructions:   48000000 cycles:   20593066 heartbeat IPC: 2.17754 cumulative IPC: 2.33088 (Simulation time: 0 hr 0 min 55 sec) 
Heartbeat CPU  0 instructions:   49000003 cycles:   21049293 heartbeat IPC: 2.19190 cumulative IPC: 2.32787 (Simulation time: 0 hr 0 min 56 sec) 
Heartbeat CPU  0 instructions:   50000003 cycles:   21559660 heartbeat IPC: 1.95937 cumulative IPC: 2.31915 (Simulation time: 0 hr 0 min 57 sec) 
Heartbeat CPU  0 instructions:   51000002 cycles:   22021136 heartbeat IPC: 2.16696 cumulative IPC: 2.31596 (Simulation time: 0 hr 0 min 58 sec) 
Heartbeat CPU  0 instructions:   52000000 cycles:   22393562 heartbeat IPC: 2.68509 cumulative IPC: 2.32210 (Simulation time: 0 hr 0 min 59 sec) 
Heartbeat CPU  0 instructions:   53000001 cycles:   22760687 heartbeat IPC: 2.72387 cumulative IPC: 2.32858 (Simulation time: 0 hr 1 min 1 sec) 
Heartbeat CPU  0 instructions:   54000001 cycles:   23209932 heartbeat IPC: 2.22596 cumulative IPC: 2.32659 (Simulation time: 0 hr 1 min 2 sec) 
Heartbeat CPU  0 instructions:   55000001 cycles:   23663171 heartbeat IPC: 2.20634 cumulative IPC: 2.32429 (Simulation time: 0 hr 1 min 3 sec) 
Heartbeat CPU  0 instructions:   56000000 cycles:   24119897 heartbeat IPC: 2.18949 cumulative IPC: 2.32173 (Simulation time: 0 hr 1 min 4 sec) 
Heartbeat CPU  0 instructions:   57000003 cycles:   24604720 heartbeat IPC: 2.06261 cumulative IPC: 2.31663 (Simulation time: 0 hr 1 min 5 sec) 
Heartbeat CPU  0 instructions:   58000001 cycles:   24997302 heartbeat IPC: 2.54723 cumulative IPC: 2.32025 (Simulation time: 0 hr 1 min 6 sec) 
Heartbeat CPU  0 instructions:   59000001 cycles:   25364250 heartbeat IPC: 2.72518 cumulative IPC: 2.32611 (Simulation time: 0 hr 1 min 7 sec) 
Heartbeat CPU  0 instructions:   60000000 cycles:   25803177 heartbeat IPC: 2.27828 cumulative IPC: 2.32529 (Simulation time: 0 hr 1 min 8 sec) 
Heartbeat CPU  0 instructions:   61000000 cycles:   26258810 heartbeat IPC: 2.19475 cumulative IPC: 2.32303 (Simulation time: 0 hr 1 min 10 sec) 
Heartbeat CPU  0 instructions:   62000000 cycles:   26715829 heartbeat IPC: 2.18809 cumulative IPC: 2.32072 (Simulation time: 0 hr 1 min 11 sec) 
Heartbeat CPU  0 instructions:   63000000 cycles:   27202659 heartbeat IPC: 2.05411 cumulative IPC: 2.31595 (Simulation time: 0 hr 1 min 12 sec) 
Heartbeat CPU  0 instructions:   64000000 cycles:   27603650 heartbeat IPC: 2.49382 cumulative IPC: 2.31853 (Simulation time: 0 hr 1 min 13 sec) 
Heartbeat CPU  0 instructions:   65000000 cycles:   27970716 heartbeat IPC: 2.72431 cumulative IPC: 2.32386 (Simulation time: 0 hr 1 min 14 sec) 
Heartbeat CPU  0 instructions:   66000001 cycles:   28395525 heartbeat IPC: 2.35400 cumulative IPC: 2.32431 (Simulation time: 0 hr 1 min 15 sec) 
Heartbeat CPU  0 instructions:   67000003 cycles:   28854837 heartbeat IPC: 2.17717 cumulative IPC: 2.32197 (Simulation time: 0 hr 1 min 16 sec) 
Heartbeat CPU  0 instructions:   68000000 cycles:   29308564 heartbeat IPC: 2.20396 cumulative IPC: 2.32014 (Simulation time: 0 hr 1 min 18 sec) 
Heartbeat CPU  0 instructions:   69000001 cycles:   29795323 heartbeat IPC: 2.05441 cumulative IPC: 2.31580 (Simulation time: 0 hr 1 min 19 sec) 
Heartbeat CPU  0 instructions:   70000001 cycles:   30203446 heartbeat IPC: 2.45024 cumulative IPC: 2.31762 (Simulation time: 0 hr 1 min 20 sec) 
Heartbeat CPU  0 instructions:   71000001 cycles:   30570656 heartbeat IPC: 2.72324 cumulative IPC: 2.32249 (Simulation time: 0 hr 1 min 21 sec) 
Heartbeat CPU  0 instructions:   72000000 cycles:   30986030 heartbeat IPC: 2.40747 cumulative IPC: 2.32363 (Simulation time: 0 hr 1 min 22 sec) 
Heartbeat CPU  0 instructions:   73000000 cycles:   31442509 heartbeat IPC: 2.19068 cumulative IPC: 2.32170 (Simulation time: 0 hr 1 min 23 sec) 
Heartbeat CPU  0 instructions:   74000002 cycles:   31897577 heartbeat IPC: 2.19748 cumulative IPC: 2.31993 (Simulation time: 0 hr 1 min 24 sec) 
Heartbeat CPU  0 instructions:   75000002 cycles:   32385713 heartbeat IPC: 2.04861 cumulative IPC: 2.31584 (Simulation time: 0 hr 1 min 25 sec) 
Heartbeat CPU  0 instructions:   76000000 cycles:   32803264 heartbeat IPC: 2.39491 cumulative IPC: 2.31684 (Simulation time: 0 hr 1 min 26 sec) 
Heartbeat CPU  0 instructions:   77000003 cycles:   33170454 heartbeat IPC: 2.72339 cumulative IPC: 2.32134 (Simulation time: 0 hr 1 min 28 sec) 
Heartbeat CPU  0 instructions:   78000002 cycles:   33578360 heartbeat IPC: 2.45154 cumulative IPC: 2.32292 (Simulation time: 0 hr 1 min 29 sec) 
Heartbeat CPU  0 instructions:   79000000 cycles:   34033214 heartbeat IPC: 2.19850 cumulative IPC: 2.32126 (Simulation time: 0 hr 1 min 30 sec) 
Heartbeat CPU  0 instructions:   80000000 cycles:   34489860 heartbeat IPC: 2.18988 cumulative IPC: 2.31952 (Simulation time: 0 hr 1 min 31 sec) 
Heartbeat CPU  0 instructions:   81000001 cycles:   34948541 heartbeat IPC: 2.18017 cumulative IPC: 2.31769 (Simulation time: 0 hr 1 min 32 sec) 
Heartbeat CPU  0 instructions:   82000001 cycles:   35434307 heartbeat IPC: 2.05860 cumulative IPC: 2.31414 (Simulation time: 0 hr 1 min 33 sec) 
Heartbeat CPU  0 instructions:   83000001 cycles:   35805316 heartbeat IPC: 2.69535 cumulative IPC: 2.31809 (Simulation time: 0 hr 1 min 34 sec) 
Heartbeat CPU  0 instructions:   84000000 cycles:   36173262 heartbeat IPC: 2.71779 cumulative IPC: 2.32216 (Simulation time: 0 hr 1 min 35 sec) 
Heartbeat CPU  0 instructions:   85000003 cycles:   36628525 heartbeat IPC: 2.19654 cumulative IPC: 2.32060 (Simulation time: 0 hr 1 min 36 sec) 
Heartbeat CPU  0 instructions:   86000001 cycles:   37083884 heartbeat IPC: 2.19607 cumulative IPC: 2.31907 (Simulation time: 0 hr 1 min 37 sec) 
Heartbeat CPU  0 instructions:   87000003 cycles:   37540770 heartbeat IPC: 2.18873 cumulative IPC: 2.31748 (Simulation time: 0 hr 1 min 39 sec) 
Heartbeat CPU  0 instructions:   88000000 cycles:   38030008 heartbeat IPC: 2.04399 cumulative IPC: 2.31396 (Simulation time: 0 hr 1 min 40 sec) 
Heartbeat CPU  0 instructions:   89000002 cycles:   38432129 heartbeat IPC: 2.48682 cumulative IPC: 2.31577 (Simulation time: 0 hr 1 min 41 sec) 
Heartbeat CPU  0 instructions:   90000002 cycles:   38799281 heartbeat IPC: 2.72367 cumulative IPC: 2.31963 (Simulation time: 0 hr 1 min 42 sec) 
Heartbeat CPU  0 instructions:   91000002 cycles:   39219885 heartbeat IPC: 2.37753 cumulative IPC: 2.32025 (Simulation time: 0 hr 1 min 43 sec) 
Heartbeat CPU  0 instructions:   92000000 cycles:   39673071 heartbeat IPC: 2.20660 cumulative IPC: 2.31895 (Simulation time: 0 hr 1 min 44 sec) 
Heartbeat CPU  0 instructions:   93000002 cycles:   40129304 heartbeat IPC: 2.19187 cumulative IPC: 2.31751 (Simulation time: 0 hr 1 min 45 sec) 
Heartbeat CPU  0 instructions:   94000001 cycles:   40617098 heartbeat IPC: 2.05004 cumulative IPC: 2.31430 (Simulation time: 0 hr 1 min 46 sec) 
Heartbeat CPU  0 instructions:   95000003 cycles:   40988748 heartbeat IPC: 2.69071 cumulative IPC: 2.31771 (Simulation time: 0 hr 1 min 47 sec) 
Heartbeat CPU  0 instructions:   96000000 cycles:   41355833 heartbeat IPC: 2.72416 cumulative IPC: 2.32132 (Simulation time: 0 hr 1 min 49 sec) 
Heartbeat CPU  0 instructions:   97000001 cycles:   41801503 heartbeat IPC: 2.24381 cumulative IPC: 2.32049 (Simulation time: 0 hr 1 min 50 sec) 
Heartbeat CPU  0 instructions:   98000002 cycles:   42257672 heartbeat IPC: 2.19217 cumulative IPC: 2.31911 (Simulation time: 0 hr 1 min 51 sec) 
Heartbeat CPU  0 instructions:   99000003 cycles:   42743383 heartbeat IPC: 2.05884 cumulative IPC: 2.31615 (Simulation time: 0 hr 1 min 52 sec) 
Heartbeat CPU  0 instructions:  100000000 cycles:   43287035 heartbeat IPC: 1.83941 cumulative IPC: 2.31016 (Simulation time: 0 hr 1 min 53 sec) 

Warmup complete CPU  0 instructions:  100000001 cycles:   43287036 (Simulation time: 0 hr 1 min 53 sec) 

Heartbeat CPU  0 instructions:  101000001 cycles:   44159612 heartbeat IPC: 1.14603 cumulative IPC: 1.14603 (Simulation time: 0 hr 1 min 54 sec) 
Heartbeat CPU  0 instructions:  102000002 cycles:   44868877 heartbeat IPC: 1.40991 cumulative IPC: 1.26435 (Simulation time: 0 hr 1 min 56 sec) 
Heartbeat CPU  0 instructions:  103000000 cycles:   45662824 heartbeat IPC: 1.25953 cumulative IPC: 1.26274 (Simulation time: 0 hr 1 min 57 sec) 
Heartbeat CPU  0 instructions:  104000000 cycles:   46628474 heartbeat IPC: 1.03557 cumulative IPC: 1.19709 (Simulation time: 0 hr 1 min 58 sec) 
Heartbeat CPU  0 instructions:  105000000 cycles:   47574215 heartbeat IPC: 1.05737 cumulative IPC: 1.16627 (Simulation time: 0 hr 2 min 0 sec) 
Heartbeat CPU  0 instructions:  106000003 cycles:   48228220 heartbeat IPC: 1.52904 cumulative IPC: 1.21428 (Simulation time: 0 hr 2 min 2 sec) 
Heartbeat CPU  0 instructions:  107000000 cycles:   48822933 heartbeat IPC: 1.68148 cumulative IPC: 1.26447 (Simulation time: 0 hr 2 min 3 sec) 
Heartbeat CPU  0 instructions:  108000000 cycles:   49707387 heartbeat IPC: 1.13064 cumulative IPC: 1.24604 (Simulation time: 0 hr 2 min 5 sec) 
Heartbeat CPU  0 instructions:  109000000 cycles:   50682774 heartbeat IPC: 1.02523 cumulative IPC: 1.21692 (Simulation time: 0 hr 2 min 6 sec) 
Heartbeat CPU  0 instructions:  110000001 cycles:   51479425 heartbeat IPC: 1.25526 cumulative IPC: 1.22065 (Simulation time: 0 hr 2 min 8 sec) 
Heartbeat CPU  0 instructions:  111000001 cycles:   52067059 heartbeat IPC: 1.70174 cumulative IPC: 1.25284 (Simulation time: 0 hr 2 min 9 sec) 
Heartbeat CPU  0 instructions:  112000000 cycles:   52796898 heartbeat IPC: 1.37016 cumulative IPC: 1.26185 (Simulation time: 0 hr 2 min 10 sec) 
Heartbeat CPU  0 instructions:  113000003 cycles:   53737224 heartbeat IPC: 1.06346 cumulative IPC: 1.24400 (Simulation time: 0 hr 2 min 12 sec) 
Heartbeat CPU  0 instructions:  114000001 cycles:   54671942 heartbeat IPC: 1.06984 cumulative IPC: 1.22970 (Simulation time: 0 hr 2 min 13 sec) 
Heartbeat CPU  0 instructions:  115000002 cycles:   55454389 heartbeat IPC: 1.27804 cumulative IPC: 1.23281 (Simulation time: 0 hr 2 min 14 sec) 
Heartbeat CPU  0 instructions:  116000000 cycles:   56020590 heartbeat IPC: 1.76615 cumulative IPC: 1.25652 (Simulation time: 0 hr 2 min 16 sec) 
Heartbeat CPU  0 instructions:  117000000 cycles:   56877449 heartbeat IPC: 1.16705 cumulative IPC: 1.25088 (Simulation time: 0 hr 2 min 17 sec) 
Heartbeat CPU  0 instructions:  118000003 cycles:   57769526 heartbeat IPC: 1.12098 cumulative IPC: 1.24288 (Simulation time: 0 hr 2 min 19 sec) 
Heartbeat CPU  0 instructions:  119000002 cycles:   58682729 heartbeat IPC: 1.09505 cumulative IPC: 1.23411 (Simulation time: 0 hr 2 min 20 sec) 
Heartbeat CPU  0 instructions:  120000000 cycles:   59774257 heartbeat IPC: 0.91615 cumulative IPC: 1.21306 (Simulation time: 0 hr 2 min 21 sec) 
Heartbeat CPU  0 instructions:  121000000 cycles:   60633351 heartbeat IPC: 1.16402 cumulative IPC: 1.21063 (Simulation time: 0 hr 2 min 23 sec) 
Heartbeat CPU  0 instructions:  122000001 cycles:   61215349 heartbeat IPC: 1.71822 cumulative IPC: 1.22711 (Simulation time: 0 hr 2 min 24 sec) 
Heartbeat CPU  0 instructions:  123000001 cycles:   61915936 heartbeat IPC: 1.42737 cumulative IPC: 1.23464 (Simulation time: 0 hr 2 min 25 sec) 
Heartbeat CPU  0 instructions:  124000000 cycles:   62844225 heartbeat IPC: 1.07725 cumulative IPC: 1.22717 (Simulation time: 0 hr 2 min 27 sec) 
Heartbeat CPU  0 instructions:  125000001 cycles:   63747549 heartbeat IPC: 1.10702 cumulative IPC: 1.22187 (Simulation time: 0 hr 2 min 28 sec) 
Heartbeat CPU  0 instructions:  126000003 cycles:   64676745 heartbeat IPC: 1.07620 cumulative IPC: 1.21554 (Simulation time: 0 hr 2 min 29 sec) 
Heartbeat CPU  0 instructions:  127000000 cycles:   65700422 heartbeat IPC: 0.97687 cumulative IPC: 1.20464 (Simulation time: 0 hr 2 min 31 sec) 
Heartbeat CPU  0 instructions:  128000000 cycles:   66312242 heartbeat IPC: 1.63447 cumulative IPC: 1.21606 (Simulation time: 0 hr 2 min 32 sec) 
Heartbeat CPU  0 instructions:  129000000 cycles:   66920535 heartbeat IPC: 1.64394 cumulative IPC: 1.22707 (Simulation time: 0 hr 2 min 33 sec) 
Heartbeat CPU  0 instructions:  130000000 cycles:   67857961 heartbeat IPC: 1.06675 cumulative IPC: 1.22096 (Simulation time: 0 hr 2 min 34 sec) 
Heartbeat CPU  0 instructions:  131000002 cycles:   68769048 heartbeat IPC: 1.09759 cumulative IPC: 1.21654 (Simulation time: 0 hr 2 min 36 sec) 
Heartbeat CPU  0 instructions:  132000000 cycles:   69793810 heartbeat IPC: 0.97583 cumulative IPC: 1.20724 (Simulation time: 0 hr 2 min 37 sec) 
Heartbeat CPU  0 instructions:  133000000 cycles:   70550902 heartbeat IPC: 1.32084 cumulative IPC: 1.21039 (Simulation time: 0 hr 2 min 38 sec) 
Heartbeat CPU  0 instructions:  134000002 cycles:   71137387 heartbeat IPC: 1.70508 cumulative IPC: 1.22081 (Simulation time: 0 hr 2 min 40 sec) 
Heartbeat CPU  0 instructions:  135000001 cycles:   71899855 heartbeat IPC: 1.31153 cumulative IPC: 1.22323 (Simulation time: 0 hr 2 min 41 sec) 
Heartbeat CPU  0 instructions:  136000000 cycles:   72825445 heartbeat IPC: 1.08039 cumulative IPC: 1.21875 (Simulation time: 0 hr 2 min 42 sec) 
Heartbeat CPU  0 instructions:  137000002 cycles:   73814712 heartbeat IPC: 1.01085 cumulative IPC: 1.21202 (Simulation time: 0 hr 2 min 44 sec) 
Heartbeat CPU  0 instructions:  138000002 cycles:   74528084 heartbeat IPC: 1.40179 cumulative IPC: 1.21635 (Simulation time: 0 hr 2 min 45 sec) 
Heartbeat CPU  0 instructions:  139000002 cycles:   75106635 heartbeat IPC: 1.72846 cumulative IPC: 1.22566 (Simulation time: 0 hr 2 min 46 sec) 
Heartbeat CPU  0 instructions:  140000000 cycles:   75902740 heartbeat IPC: 1.25611 cumulative IPC: 1.22640 (Simulation time: 0 hr 2 min 48 sec) 
Heartbeat CPU  0 instructions:  141000000 cycles:   76825189 heartbeat IPC: 1.08407 cumulative IPC: 1.22249 (Simulation time: 0 hr 2 min 49 sec) 
Heartbeat CPU  0 instructions:  142000001 cycles:   77788763 heartbeat IPC: 1.03780 cumulative IPC: 1.21733 (Simulation time: 0 hr 2 min 50 sec) 
Heartbeat CPU  0 instructions:  143000003 cycles:   78433944 heartbeat IPC: 1.54996 cumulative IPC: 1.22344 (Simulation time: 0 hr 2 min 52 sec) 
Heartbeat CPU  0 instructions:  144000000 cycles:   79006297 heartbeat IPC: 1.74717 cumulative IPC: 1.23183 (Simulation time: 0 hr 2 min 53 sec) 
Heartbeat CPU  0 instructions:  145000002 cycles:   79884430 heartbeat IPC: 1.13878 cumulative IPC: 1.22960 (Simulation time: 0 hr 2 min 54 sec) 
Heartbeat CPU  0 instructions:  146000002 cycles:   80828947 heartbeat IPC: 1.05874 cumulative IPC: 1.22530 (Simulation time: 0 hr 2 min 55 sec) 
Heartbeat CPU  0 instructions:  147000002 cycles:   81711948 heartbeat IPC: 1.13250 cumulative IPC: 1.22316 (Simulation time: 0 hr 2 min 57 sec) 
Heartbeat CPU  0 instructions:  148000000 cycles:   82283779 heartbeat IPC: 1.74876 cumulative IPC: 1.23087 (Simulation time: 0 hr 2 min 58 sec) 
Heartbeat CPU  0 instructions:  149000000 cycles:   82925005 heartbeat IPC: 1.55951 cumulative IPC: 1.23619 (Simulation time: 0 hr 2 min 59 sec) 
Heartbeat CPU  0 instructions:  150000003 cycles:   83845884 heartbeat IPC: 1.08592 cumulative IPC: 1.23278 (Simulation time: 0 hr 3 min 1 sec) 
Heartbeat CPU  0 instructions:  151000002 cycles:   84903807 heartbeat IPC: 0.94525 cumulative IPC: 1.22547 (Simulation time: 0 hr 3 min 2 sec) 
Heartbeat CPU  0 instructions:  152000000 cycles:   85783873 heartbeat IPC: 1.13628 cumulative IPC: 1.22362 (Simulation time: 0 hr 3 min 3 sec) 
Heartbeat CPU  0 instructions:  153000001 cycles:   86504464 heartbeat IPC: 1.38775 cumulative IPC: 1.22636 (Simulation time: 0 hr 3 min 4 sec) 
Heartbeat CPU  0 instructions:  154000002 cycles:   87085442 heartbeat IPC: 1.72124 cumulative IPC: 1.23292 (Simulation time: 0 hr 3 min 6 sec) 
Heartbeat CPU  0 instructions:  155000003 cycles:   87839290 heartbeat IPC: 1.32653 cumulative IPC: 1.23451 (Simulation time: 0 hr 3 min 7 sec) 
Heartbeat CPU  0 instructions:  156000000 cycles:   88769018 heartbeat IPC: 1.07558 cumulative IPC: 1.23126 (Simulation time: 0 hr 3 min 8 sec) 
Heartbeat CPU  0 instructions:  157000003 cycles:   89722533 heartbeat IPC: 1.04875 cumulative IPC: 1.22751 (Simulation time: 0 hr 3 min 10 sec) 
Heartbeat CPU  0 instructions:  158000002 cycles:   90336016 heartbeat IPC: 1.63004 cumulative IPC: 1.23276 (Simulation time: 0 hr 3 min 11 sec) 
Heartbeat CPU  0 instructions:  159000000 cycles:   90901296 heartbeat IPC: 1.76903 cumulative IPC: 1.23912 (Simulation time: 0 hr 3 min 12 sec) 
Heartbeat CPU  0 instructions:  160000000 cycles:   91832671 heartbeat IPC: 1.07368 cumulative IPC: 1.23595 (Simulation time: 0 hr 3 min 13 sec) 
Heartbeat CPU  0 instructions:  161000000 cycles:   92820178 heartbeat IPC: 1.01265 cumulative IPC: 1.23150 (Simulation time: 0 hr 3 min 15 sec) 
Heartbeat CPU  0 instructions:  162000003 cycles:   93551770 heartbeat IPC: 1.36689 cumulative IPC: 1.23347 (Simulation time: 0 hr 3 min 16 sec) 
Heartbeat CPU  0 instructions:  163000002 cycles:   94127584 heartbeat IPC: 1.73667 cumulative IPC: 1.23917 (Simulation time: 0 hr 3 min 17 sec) 
Heartbeat CPU  0 instructions:  164000000 cycles:   94859701 heartbeat IPC: 1.36590 cumulative IPC: 1.24097 (Simulation time: 0 hr 3 min 19 sec) 
Heartbeat CPU  0 instructions:  165000000 cycles:   95783685 heartbeat IPC: 1.08227 cumulative IPC: 1.23817 (Simulation time: 0 hr 3 min 20 sec) 
Heartbeat CPU  0 instructions:  166000002 cycles:   96725459 heartbeat IPC: 1.06183 cumulative IPC: 1.23507 (Simulation time: 0 hr 3 min 21 sec) 
Heartbeat CPU  0 instructions:  167000001 cycles:   97337650 heartbeat IPC: 1.63348 cumulative IPC: 1.23958 (Simulation time: 0 hr 3 min 22 sec) 
Heartbeat CPU  0 instructions:  168000000 cycles:   97901155 heartbeat IPC: 1.77461 cumulative IPC: 1.24510 (Simulation time: 0 hr 3 min 24 sec) 
Heartbeat CPU  0 instructions:  169000000 cycles:   98825283 heartbeat IPC: 1.08210 cumulative IPC: 1.24239 (Simulation time: 0 hr 3 min 25 sec) 
Heartbeat CPU  0 instructions:  170000000 cycles:   99810907 heartbeat IPC: 1.01459 cumulative IPC: 1.23841 (Simulation time: 0 hr 3 min 26 sec) 
Heartbeat CPU  0 instructions:  171000001 cycles:  100565483 heartbeat IPC: 1.32525 cumulative IPC: 1.23956 (Simulation time: 0 hr 3 min 28 sec) 
Heartbeat CPU  0 instructions:  172000000 cycles:  101145646 heartbeat IPC: 1.72365 cumulative IPC: 1.24441 (Simulation time: 0 hr 3 min 29 sec) 
Heartbeat CPU  0 instructions:  173000001 cycles:  101878628 heartbeat IPC: 1.36429 cumulative IPC: 1.24591 (Simulation time: 0 hr 3 min 30 sec) 
Heartbeat CPU  0 instructions:  174000000 cycles:  102809907 heartbeat IPC: 1.07379 cumulative IPC: 1.24322 (Simulation time: 0 hr 3 min 31 sec) 
Heartbeat CPU  0 instructions:  175000002 cycles:  103772125 heartbeat IPC: 1.03927 cumulative IPC: 1.23998 (Simulation time: 0 hr 3 min 33 sec) 
Heartbeat CPU  0 instructions:  176000000 cycles:  104389799 heartbeat IPC: 1.61897 cumulative IPC: 1.24381 (Simulation time: 0 hr 3 min 34 sec) 
Heartbeat CPU  0 instructions:  177000000 cycles:  104951033 heartbeat IPC: 1.78179 cumulative IPC: 1.24870 (Simulation time: 0 hr 3 min 35 sec) 
Heartbeat CPU  0 instructions:  178000003 cycles:  105862918 heartbeat IPC: 1.09663 cumulative IPC: 1.24649 (Simulation time: 0 hr 3 min 37 sec) 
Heartbeat CPU  0 instructions:  179000000 cycles:  106858521 heartbeat IPC: 1.00441 cumulative IPC: 1.24270 (Simulation time: 0 hr 3 min 38 sec) 
Heartbeat CPU  0 instructions:  180000000 cycles:  107610555 heartbeat IPC: 1.32973 cumulative IPC: 1.24371 (Simulation time: 0 hr 3 min 39 sec) 
Heartbeat CPU  0 instructions:  181000002 cycles:  108187546 heartbeat IPC: 1.73313 cumulative IPC: 1.24806 (Simulation time: 0 hr 3 min 41 sec) 
Heartbeat CPU  0 instructions:  182000002 cycles:  108913848 heartbeat IPC: 1.37684 cumulative IPC: 1.24949 (Simulation time: 0 hr 3 min 42 sec) 
Heartbeat CPU  0 instructions:  183000002 cycles:  109826491 heartbeat IPC: 1.09572 cumulative IPC: 1.24738 (Simulation time: 0 hr 3 min 43 sec) 
Heartbeat CPU  0 instructions:  184000000 cycles:  110787883 heartbeat IPC: 1.04016 cumulative IPC: 1.24443 (Simulation time: 0 hr 3 min 45 sec) 
Heartbeat CPU  0 instructions:  185000003 cycles:  111409426 heartbeat IPC: 1.60890 cumulative IPC: 1.24775 (Simulation time: 0 hr 3 min 46 sec) 
Heartbeat CPU  0 instructions:  186000002 cycles:  111972834 heartbeat IPC: 1.77491 cumulative IPC: 1.25208 (Simulation time: 0 hr 3 min 47 sec) 
Heartbeat CPU  0 instructions:  187000002 cycles:  112883923 heartbeat IPC: 1.09759 cumulative IPC: 1.25006 (Simulation time: 0 hr 3 min 48 sec) 
Heartbeat CPU  0 instructions:  188000000 cycles:  113878109 heartbeat IPC: 1.00585 cumulative IPC: 1.24662 (Simulation time: 0 hr 3 min 50 sec) 
Heartbeat CPU  0 instructions:  189000003 cycles:  114642730 heartbeat IPC: 1.30784 cumulative IPC: 1.24727 (Simulation time: 0 hr 3 min 51 sec) 
Heartbeat CPU  0 instructions:  190000001 cycles:  115219321 heartbeat IPC: 1.73433 cumulative IPC: 1.25118 (Simulation time: 0 hr 3 min 52 sec) 
Heartbeat CPU  0 instructions:  191000001 cycles:  115942753 heartbeat IPC: 1.38230 cumulative IPC: 1.25248 (Simulation time: 0 hr 3 min 54 sec) 
Heartbeat CPU  0 instructions:  192000000 cycles:  116867390 heartbeat IPC: 1.08150 cumulative IPC: 1.25033 (Simulation time: 0 hr 3 min 55 sec) 
Heartbeat CPU  0 instructions:  193000002 cycles:  117837810 heartbeat IPC: 1.03048 cumulative IPC: 1.24747 (Simulation time: 0 hr 3 min 56 sec) 
Heartbeat CPU  0 instructions:  194000002 cycles:  118460821 heartbeat IPC: 1.60511 cumulative IPC: 1.25044 (Simulation time: 0 hr 3 min 58 sec) 
Heartbeat CPU  0 instructions:  195000001 cycles:  119021948 heartbeat IPC: 1.78213 cumulative IPC: 1.25438 (Simulation time: 0 hr 3 min 59 sec) 
Heartbeat CPU  0 instructions:  196000000 cycles:  119930631 heartbeat IPC: 1.10049 cumulative IPC: 1.25255 (Simulation time: 0 hr 4 min 0 sec) 
Heartbeat CPU  0 instructions:  197000002 cycles:  120939327 heartbeat IPC: 0.99138 cumulative IPC: 1.24916 (Simulation time: 0 hr 4 min 1 sec) 
Heartbeat CPU  0 instructions:  198000000 cycles:  121692144 heartbeat IPC: 1.32834 cumulative IPC: 1.24992 (Simulation time: 0 hr 4 min 3 sec) 
Heartbeat CPU  0 instructions:  199000003 cycles:  122268252 heartbeat IPC: 1.73579 cumulative IPC: 1.25346 (Simulation time: 0 hr 4 min 4 sec) 
Heartbeat CPU  0 instructions:  200000000 cycles:  122982907 heartbeat IPC: 1.39927 cumulative IPC: 1.25477 (Simulation time: 0 hr 4 min 5 sec) 
Finished CPU 0 instructions: 100000003 cycles: 79695879 cumulative IPC: 1.25477 (Simulation time: 0 hr 4 min 5 sec) 

ChampSim completed all CPUs

[ROI Statistics]
Core_0_instructions 100000003
Core_0_cycles 79695879
Core_0_IPC 1.25477

Core_0_branch_prediction_accuracy 97.76309
Core_0_branch_MPKI 1.93474
Core_0_average_ROB_occupancy_at_mispredict 143.23384

Core_0_L1D_total_access 29385875
Core_0_L1D_total_hit 27724567
Core_0_L1D_total_miss 1661308
Core_0_L1D_loads 14730305
Core_0_L1D_load_hit 14353214
Core_0_L1D_load_miss 377091
Core_0_L1D_RFOs 1319862
Core_0_L1D_RFO_hit 1231289
Core_0_L1D_RFO_miss 88573
Core_0_L1D_prefetches 13335708
Core_0_L1D_prefetch_hit 12140064
Core_0_L1D_prefetch_miss 1195644
Core_0_L1D_writebacks 0
Core_0_L1D_writeback_hit 0
Core_0_L1D_writeback_miss 0
Core_0_L1D_prefetch_requested 39064997
Core_0_L1D_prefetch_issued 38642919
Core_0_L1D_prefetch_useful 2000968
Core_0_L1D_prefetch_useless 523012
Core_0_L1D_prefetch_late 60072
Core_0_L1D_average_miss_latency 2604992.07157

Core_0_L1I_total_access 24288272
Core_0_L1I_total_hit 24287971
Core_0_L1I_total_miss 301
Core_0_L1I_loads 24288272
Core_0_L1I_load_hit 24287971
Core_0_L1I_load_miss 301
Core_0_L1I_RFOs 0
Core_0_L1I_RFO_hit 0
Core_0_L1I_RFO_miss 0
Core_0_L1I_prefetches 0
Core_0_L1I_prefetch_hit 0
Core_0_L1I_prefetch_miss 0
Core_0_L1I_writebacks 0
Core_0_L1I_writeback_hit 0
Core_0_L1I_writeback_miss 0
Core_0_L1I_prefetch_requested 0
Core_0_L1I_prefetch_issued 0
Core_0_L1I_prefetch_useful 0
Core_0_L1I_prefetch_useless 0
Core_0_L1I_prefetch_late 0
Core_0_L1I_average_miss_latency 186.58472

Core_0_L2C_total_access 3739020
Core_0_L2C_total_hit 2365637
Core_0_L2C_total_miss 1373383
Core_0_L2C_loads 323295
Core_0_L2C_load_hit 203033
Core_0_L2C_load_miss 120262
Core_0_L2C_RFOs 88550
Core_0_L2C_RFO_hit 8996
Core_0_L2C_RFO_miss 79554
Core_0_L2C_prefetches 3215256
Core_0_L2C_prefetch_hit 2041973
Core_0_L2C_prefetch_miss 1173283
Core_0_L2C_writebacks 111919
Core_0_L2C_writeback_hit 111635
Core_0_L2C_writeback_miss 284
Core_0_L2C_prefetch_requested 4955984
Core_0_L2C_prefetch_issued 4955977
Core_0_L2C_prefetch_useful 109977
Core_0_L2C_prefetch_useless 2272573
Core_0_L2C_prefetch_late 773
Core_0_L2C_average_miss_latency 104.55395

Core_0_LLC_total_access 2027611
Core_0_LLC_total_hit 1032355
Core_0_LLC_total_miss 995256
Core_0_LLC_loads 119498
Core_0_LLC_load_hit 51956
Core_0_LLC_load_miss 67542
Core_0_LLC_RFOs 79554
Core_0_LLC_RFO_hit 31299
Core_0_LLC_RFO_miss 48255
Core_0_LLC_prefetches 1723418
Core_0_LLC_prefetch_hit 889166
Core_0_LLC_prefetch_miss 834252
Core_0_LLC_writebacks 105141
Core_0_LLC_writeback_hit 59934
Core_0_LLC_writeback_miss 45207
Core_0_LLC_prefetch_requested 2287707
Core_0_LLC_prefetch_issued 2251189
Core_0_LLC_prefetch_useful 25797
Core_0_LLC_prefetch_useless 1998229
Core_0_LLC_prefetch_late 150
Core_0_LLC_average_miss_latency 143.43752

Core_0_major_page_fault 0
Core_0_minor_page_fault 3151

CPU 0 L1D next line prefetcher final stats
CPU 0 L2C PC-based stride prefetcher final stats
LLC Next Line Prefetcher Final Stats: none
Channel_0_RQ_row_buffer_hit 578641
Channel_0_RQ_row_buffer_miss 371352
Channel_0_WQ_row_buffer_hit 23655
Channel_0_WQ_row_buffer_miss 50271
Channel_0_WQ_full 0
Channel_0_dbus_congested 368021

avg_congested_cycle 9
