*************************************************
   ChampSim Multicore Out-of-Order Simulator
   Last compiled: Dec 22 2023 16:39:58
*************************************************

trace_0 ./test_trace/482.sphinx3-1100B.champsimtrace.xz
CPU 0 L2C next line prefetcher
Initialize DRRIP state
Assign rand_sets[0]: 454  LLC: 2048
rand_sets[0]: 454
Assign rand_sets[1]: 1662  LLC: 2048
rand_sets[1]: 1662
Assign rand_sets[2]: 1921  LLC: 2048
rand_sets[2]: 1921
Assign rand_sets[3]: 1131  LLC: 2048
rand_sets[3]: 1131
Assign rand_sets[4]: 331  LLC: 2048
rand_sets[4]: 331
Assign rand_sets[5]: 1531  LLC: 2048
rand_sets[5]: 1531
Assign rand_sets[6]: 482  LLC: 2048
rand_sets[6]: 482
Assign rand_sets[7]: 1275  LLC: 2048
rand_sets[7]: 1275
Assign rand_sets[8]: 1876  LLC: 2048
rand_sets[8]: 1876
Assign rand_sets[9]: 2038  LLC: 2048
rand_sets[9]: 2038
Assign rand_sets[10]: 701  LLC: 2048
rand_sets[10]: 701
Assign rand_sets[11]: 479  LLC: 2048
rand_sets[11]: 479
Assign rand_sets[12]: 892  LLC: 2048
rand_sets[12]: 892
Assign rand_sets[13]: 1820  LLC: 2048
rand_sets[13]: 1820
Assign rand_sets[14]: 1505  LLC: 2048
rand_sets[14]: 1505
Assign rand_sets[15]: 1159  LLC: 2048
rand_sets[15]: 1159
Assign rand_sets[16]: 513  LLC: 2048
rand_sets[16]: 513
Assign rand_sets[17]: 703  LLC: 2048
rand_sets[17]: 703
Assign rand_sets[18]: 561  LLC: 2048
rand_sets[18]: 561
Assign rand_sets[19]: 990  LLC: 2048
rand_sets[19]: 990
Assign rand_sets[20]: 342  LLC: 2048
rand_sets[20]: 342
Assign rand_sets[21]: 882  LLC: 2048
rand_sets[21]: 882
Assign rand_sets[22]: 15  LLC: 2048
rand_sets[22]: 15
Assign rand_sets[23]: 71  LLC: 2048
rand_sets[23]: 71
Assign rand_sets[24]: 1127  LLC: 2048
rand_sets[24]: 1127
Assign rand_sets[25]: 1382  LLC: 2048
rand_sets[25]: 1382
Assign rand_sets[26]: 647  LLC: 2048
rand_sets[26]: 647
Assign rand_sets[27]: 857  LLC: 2048
rand_sets[27]: 857
Assign rand_sets[28]: 1450  LLC: 2048
rand_sets[28]: 1450
Assign rand_sets[29]: 1160  LLC: 2048
rand_sets[29]: 1160
Assign rand_sets[30]: 1852  LLC: 2048
rand_sets[30]: 1852
Assign rand_sets[31]: 1881  LLC: 2048
rand_sets[31]: 1881
Assign rand_sets[32]: 1770  LLC: 2048
rand_sets[32]: 1770
Assign rand_sets[33]: 1622  LLC: 2048
rand_sets[33]: 1622
Assign rand_sets[34]: 275  LLC: 2048
rand_sets[34]: 275
Assign rand_sets[35]: 635  LLC: 2048
rand_sets[35]: 635
Assign rand_sets[36]: 466  LLC: 2048
rand_sets[36]: 466
Assign rand_sets[37]: 1413  LLC: 2048
rand_sets[37]: 1413
Assign rand_sets[38]: 417  LLC: 2048
rand_sets[38]: 417
Assign rand_sets[39]: 472  LLC: 2048
rand_sets[39]: 472
Assign rand_sets[40]: 1340  LLC: 2048
rand_sets[40]: 1340
Assign rand_sets[41]: 852  LLC: 2048
rand_sets[41]: 852
Assign rand_sets[42]: 1365  LLC: 2048
rand_sets[42]: 1365
Assign rand_sets[43]: 47  LLC: 2048
rand_sets[43]: 47
Assign rand_sets[44]: 823  LLC: 2048
rand_sets[44]: 823
Assign rand_sets[45]: 686  LLC: 2048
rand_sets[45]: 686
Assign rand_sets[46]: 1637  LLC: 2048
rand_sets[46]: 1637
Assign rand_sets[47]: 1115  LLC: 2048
rand_sets[47]: 1115
Assign rand_sets[48]: 986  LLC: 2048
rand_sets[48]: 986
Assign rand_sets[49]: 258  LLC: 2048
rand_sets[49]: 258
Assign rand_sets[50]: 633  LLC: 2048
rand_sets[50]: 633
Assign rand_sets[51]: 920  LLC: 2048
rand_sets[51]: 920
Assign rand_sets[52]: 204  LLC: 2048
rand_sets[52]: 204
Assign rand_sets[53]: 227  LLC: 2048
rand_sets[53]: 227
Assign rand_sets[54]: 1818  LLC: 2048
rand_sets[54]: 1818
Assign rand_sets[55]: 886  LLC: 2048
rand_sets[55]: 886
Assign rand_sets[56]: 1422  LLC: 2048
rand_sets[56]: 1422
Assign rand_sets[57]: 607  LLC: 2048
rand_sets[57]: 607
Assign rand_sets[58]: 217  LLC: 2048
rand_sets[58]: 217
Assign rand_sets[59]: 1945  LLC: 2048
rand_sets[59]: 1945
Assign rand_sets[60]: 143  LLC: 2048
rand_sets[60]: 143
Assign rand_sets[61]: 1311  LLC: 2048
rand_sets[61]: 1311
Assign rand_sets[62]: 319  LLC: 2048
rand_sets[62]: 319
Assign rand_sets[63]: 1846  LLC: 2048
rand_sets[63]: 1846
warmup_instructions 100000000
simulation_instructions 100000000
champsim_seed 260

num_cpus 1
cpu_freq 4000
dram_io_freq 2400
page_size 4096
block_size 64
max_read_per_cycle 8
max_fill_per_cycle 1
dram_channels 1
dram_ranks 1
dram_banks 8
dram_rows 65536
dram_columns 128
dram_row_size 8
dram_size 4096
dram_pages 1048576

fetch_width 6
decode_width 6
exec_width 4
lq_width 2
sq_width 2
retire_width 4
scheduler_size 128
branch_mispredict_penalty 20
rob_size 256
lq_size 72
sq_size 56
num_instr_destinations_sparc 4
num_instr_destinations 2
num_instr_sources 4

itlb_set 16
itlb_way 8
itlb_rq_size 16
itlb_wq_size 16
itlb_pq_size 0
itlb_mshr_size 8
itlb_latency 1

dtlb_set 16
dtlb_way 4
dtlb_rq_size 16
dtlb_wq_size 16
dtlb_pq_size 0
dtlb_mshr_size 8
dtlb_latency 1

stlb_set 128
stlb_way 12
stlb_rq_size 32
stlb_wq_size 32
stlb_pq_size 0
stlb_mshr_size 16
stlb_latency 8

l1i_size 32
l1i_set 64
l1i_way 8
l1i_rq_size 64
l1i_wq_size 64
l1i_pq_size 8
l1i_mshr_size 8
l1i_latency 1

l1d_size 32
l1d_set 64
l1d_way 8
l1d_rq_size 64
l1d_wq_size 64
l1d_pq_size 8
l1d_mshr_size 16
l1d_latency 4

l2c_size 512
l2c_set 1024
l2c_way 8
l2c_rq_size 32
l2c_wq_size 32
l2c_pq_size 16
l2c_mshr_size 32
l2c_latency 10

llc_size 2048
llc_set 2048
llc_way 16
llc_rq_size 32
llc_wq_size 32
llc_pq_size 32
llc_mshr_size 64
llc_latency 20

dram_channel_width 8
dram_wq_size 64
dram_rq_size 64
tRP 15
tRCD 15
tCAS 12.5
dram_dbus_turn_around_time 30
dram_write_high_wm 56
dram_write_low_wm 48
min_dram_writes_per_switch 16
dram_mtps 2400
dram_dbus_return_time 13


Heartbeat CPU  0 instructions:    1000001 cycles:     367703 heartbeat IPC: 2.71959 cumulative IPC: 2.71959 (Simulation time: 0 hr 0 min 1 sec) 
Heartbeat CPU  0 instructions:    2000003 cycles:     795179 heartbeat IPC: 2.33932 cumulative IPC: 2.51516 (Simulation time: 0 hr 0 min 2 sec) 
Heartbeat CPU  0 instructions:    3000001 cycles:    1253042 heartbeat IPC: 2.18406 cumulative IPC: 2.39417 (Simulation time: 0 hr 0 min 3 sec) 
Heartbeat CPU  0 instructions:    4000000 cycles:    1735669 heartbeat IPC: 2.07199 cumulative IPC: 2.30459 (Simulation time: 0 hr 0 min 4 sec) 
Heartbeat CPU  0 instructions:    5000000 cycles:    2177948 heartbeat IPC: 2.26102 cumulative IPC: 2.29574 (Simulation time: 0 hr 0 min 5 sec) 
Heartbeat CPU  0 instructions:    6000001 cycles:    2545361 heartbeat IPC: 2.72174 cumulative IPC: 2.35723 (Simulation time: 0 hr 0 min 6 sec) 
Heartbeat CPU  0 instructions:    7000000 cycles:    2936419 heartbeat IPC: 2.55716 cumulative IPC: 2.38386 (Simulation time: 0 hr 0 min 7 sec) 
Heartbeat CPU  0 instructions:    8000000 cycles:    3395253 heartbeat IPC: 2.17944 cumulative IPC: 2.35623 (Simulation time: 0 hr 0 min 8 sec) 
Heartbeat CPU  0 instructions:    9000000 cycles:    3853472 heartbeat IPC: 2.18236 cumulative IPC: 2.33556 (Simulation time: 0 hr 0 min 9 sec) 
Heartbeat CPU  0 instructions:   10000000 cycles:    4343490 heartbeat IPC: 2.04074 cumulative IPC: 2.30230 (Simulation time: 0 hr 0 min 10 sec) 
Heartbeat CPU  0 instructions:   11000001 cycles:    4715743 heartbeat IPC: 2.68635 cumulative IPC: 2.33261 (Simulation time: 0 hr 0 min 11 sec) 
Heartbeat CPU  0 instructions:   12000000 cycles:    5082929 heartbeat IPC: 2.72341 cumulative IPC: 2.36084 (Simulation time: 0 hr 0 min 13 sec) 
Heartbeat CPU  0 instructions:   13000001 cycles:    5532271 heartbeat IPC: 2.22548 cumulative IPC: 2.34985 (Simulation time: 0 hr 0 min 14 sec) 
Heartbeat CPU  0 instructions:   14000000 cycles:    5990536 heartbeat IPC: 2.18214 cumulative IPC: 2.33702 (Simulation time: 0 hr 0 min 15 sec) 
Heartbeat CPU  0 instructions:   15000000 cycles:    6472963 heartbeat IPC: 2.07285 cumulative IPC: 2.31733 (Simulation time: 0 hr 0 min 16 sec) 
Heartbeat CPU  0 instructions:   16000000 cycles:    6882824 heartbeat IPC: 2.43985 cumulative IPC: 2.32463 (Simulation time: 0 hr 0 min 17 sec) 
Heartbeat CPU  0 instructions:   17000003 cycles:    7250085 heartbeat IPC: 2.72287 cumulative IPC: 2.34480 (Simulation time: 0 hr 0 min 18 sec) 
Heartbeat CPU  0 instructions:   18000003 cycles:    7662104 heartbeat IPC: 2.42707 cumulative IPC: 2.34922 (Simulation time: 0 hr 0 min 19 sec) 
Heartbeat CPU  0 instructions:   19000003 cycles:    8120340 heartbeat IPC: 2.18228 cumulative IPC: 2.33980 (Simulation time: 0 hr 0 min 20 sec) 
Heartbeat CPU  0 instructions:   20000000 cycles:    8588986 heartbeat IPC: 2.13380 cumulative IPC: 2.32856 (Simulation time: 0 hr 0 min 21 sec) 
Heartbeat CPU  0 instructions:   21000002 cycles:    9047841 heartbeat IPC: 2.17934 cumulative IPC: 2.32100 (Simulation time: 0 hr 0 min 22 sec) 
Heartbeat CPU  0 instructions:   22000003 cycles:    9415118 heartbeat IPC: 2.72274 cumulative IPC: 2.33667 (Simulation time: 0 hr 0 min 23 sec) 
Heartbeat CPU  0 instructions:   23000001 cycles:    9795704 heartbeat IPC: 2.62752 cumulative IPC: 2.34797 (Simulation time: 0 hr 0 min 24 sec) 
Heartbeat CPU  0 instructions:   24000000 cycles:   10251205 heartbeat IPC: 2.19538 cumulative IPC: 2.34119 (Simulation time: 0 hr 0 min 25 sec) 
Heartbeat CPU  0 instructions:   25000002 cycles:   10706848 heartbeat IPC: 2.19471 cumulative IPC: 2.33495 (Simulation time: 0 hr 0 min 26 sec) 
Heartbeat CPU  0 instructions:   26000002 cycles:   11185379 heartbeat IPC: 2.08973 cumulative IPC: 2.32446 (Simulation time: 0 hr 0 min 27 sec) 
Heartbeat CPU  0 instructions:   27000001 cycles:   11578501 heartbeat IPC: 2.54374 cumulative IPC: 2.33191 (Simulation time: 0 hr 0 min 28 sec) 
Heartbeat CPU  0 instructions:   28000000 cycles:   11945492 heartbeat IPC: 2.72486 cumulative IPC: 2.34398 (Simulation time: 0 hr 0 min 29 sec) 
Heartbeat CPU  0 instructions:   29000001 cycles:   12381952 heartbeat IPC: 2.29116 cumulative IPC: 2.34212 (Simulation time: 0 hr 0 min 30 sec) 
Heartbeat CPU  0 instructions:   30000003 cycles:   12835857 heartbeat IPC: 2.20311 cumulative IPC: 2.33720 (Simulation time: 0 hr 0 min 31 sec) 
Heartbeat CPU  0 instructions:   31000002 cycles:   13290049 heartbeat IPC: 2.20171 cumulative IPC: 2.33257 (Simulation time: 0 hr 0 min 32 sec) 
Heartbeat CPU  0 instructions:   32000000 cycles:   13773186 heartbeat IPC: 2.06980 cumulative IPC: 2.32335 (Simulation time: 0 hr 0 min 33 sec) 
Heartbeat CPU  0 instructions:   33000003 cycles:   14174287 heartbeat IPC: 2.49315 cumulative IPC: 2.32816 (Simulation time: 0 hr 0 min 34 sec) 
Heartbeat CPU  0 instructions:   34000003 cycles:   14541306 heartbeat IPC: 2.72465 cumulative IPC: 2.33817 (Simulation time: 0 hr 0 min 35 sec) 
Heartbeat CPU  0 instructions:   35000000 cycles:   14968478 heartbeat IPC: 2.34097 cumulative IPC: 2.33825 (Simulation time: 0 hr 0 min 36 sec) 
Heartbeat CPU  0 instructions:   36000000 cycles:   15422470 heartbeat IPC: 2.20268 cumulative IPC: 2.33426 (Simulation time: 0 hr 0 min 38 sec) 
Heartbeat CPU  0 instructions:   37000000 cycles:   15876707 heartbeat IPC: 2.20149 cumulative IPC: 2.33046 (Simulation time: 0 hr 0 min 39 sec) 
Heartbeat CPU  0 instructions:   38000003 cycles:   16364394 heartbeat IPC: 2.05050 cumulative IPC: 2.32211 (Simulation time: 0 hr 0 min 40 sec) 
Heartbeat CPU  0 instructions:   39000001 cycles:   16771704 heartbeat IPC: 2.45513 cumulative IPC: 2.32535 (Simulation time: 0 hr 0 min 41 sec) 
Heartbeat CPU  0 instructions:   40000000 cycles:   17138807 heartbeat IPC: 2.72403 cumulative IPC: 2.33388 (Simulation time: 0 hr 0 min 42 sec) 
Heartbeat CPU  0 instructions:   41000003 cycles:   17558904 heartbeat IPC: 2.38041 cumulative IPC: 2.33500 (Simulation time: 0 hr 0 min 43 sec) 
Heartbeat CPU  0 instructions:   42000000 cycles:   18017063 heartbeat IPC: 2.18264 cumulative IPC: 2.33112 (Simulation time: 0 hr 0 min 44 sec) 
Heartbeat CPU  0 instructions:   43000001 cycles:   18473568 heartbeat IPC: 2.19056 cumulative IPC: 2.32765 (Simulation time: 0 hr 0 min 45 sec) 
Heartbeat CPU  0 instructions:   44000000 cycles:   18963748 heartbeat IPC: 2.04006 cumulative IPC: 2.32022 (Simulation time: 0 hr 0 min 46 sec) 
Heartbeat CPU  0 instructions:   45000002 cycles:   19375762 heartbeat IPC: 2.42711 cumulative IPC: 2.32249 (Simulation time: 0 hr 0 min 47 sec) 
Heartbeat CPU  0 instructions:   46000000 cycles:   19742995 heartbeat IPC: 2.72306 cumulative IPC: 2.32994 (Simulation time: 0 hr 0 min 49 sec) 
Heartbeat CPU  0 instructions:   47000002 cycles:   20156082 heartbeat IPC: 2.42080 cumulative IPC: 2.33180 (Simulation time: 0 hr 0 min 50 sec) 
Heartbeat CPU  0 instructions:   48000000 cycles:   20615908 heartbeat IPC: 2.17473 cumulative IPC: 2.32830 (Simulation time: 0 hr 0 min 51 sec) 
Heartbeat CPU  0 instructions:   49000003 cycles:   21072687 heartbeat IPC: 2.18925 cumulative IPC: 2.32528 (Simulation time: 0 hr 0 min 52 sec) 
Heartbeat CPU  0 instructions:   50000003 cycles:   21583232 heartbeat IPC: 1.95869 cumulative IPC: 2.31661 (Simulation time: 0 hr 0 min 53 sec) 
Heartbeat CPU  0 instructions:   51000002 cycles:   22045234 heartbeat IPC: 2.16449 cumulative IPC: 2.31343 (Simulation time: 0 hr 0 min 54 sec) 
Heartbeat CPU  0 instructions:   52000000 cycles:   22418407 heartbeat IPC: 2.67972 cumulative IPC: 2.31952 (Simulation time: 0 hr 0 min 55 sec) 
Heartbeat CPU  0 instructions:   53000001 cycles:   22785750 heartbeat IPC: 2.72225 cumulative IPC: 2.32602 (Simulation time: 0 hr 0 min 56 sec) 
Heartbeat CPU  0 instructions:   54000001 cycles:   23235297 heartbeat IPC: 2.22446 cumulative IPC: 2.32405 (Simulation time: 0 hr 0 min 57 sec) 
Heartbeat CPU  0 instructions:   55000001 cycles:   23689033 heartbeat IPC: 2.20392 cumulative IPC: 2.32175 (Simulation time: 0 hr 0 min 58 sec) 
Heartbeat CPU  0 instructions:   56000000 cycles:   24146269 heartbeat IPC: 2.18705 cumulative IPC: 2.31920 (Simulation time: 0 hr 0 min 59 sec) 
Heartbeat CPU  0 instructions:   57000003 cycles:   24631349 heartbeat IPC: 2.06152 cumulative IPC: 2.31412 (Simulation time: 0 hr 1 min 0 sec) 
Heartbeat CPU  0 instructions:   58000001 cycles:   25024877 heartbeat IPC: 2.54111 cumulative IPC: 2.31769 (Simulation time: 0 hr 1 min 1 sec) 
Heartbeat CPU  0 instructions:   59000001 cycles:   25392003 heartbeat IPC: 2.72386 cumulative IPC: 2.32357 (Simulation time: 0 hr 1 min 2 sec) 
Heartbeat CPU  0 instructions:   60000000 cycles:   25831344 heartbeat IPC: 2.27613 cumulative IPC: 2.32276 (Simulation time: 0 hr 1 min 3 sec) 
Heartbeat CPU  0 instructions:   61000000 cycles:   26287523 heartbeat IPC: 2.19212 cumulative IPC: 2.32049 (Simulation time: 0 hr 1 min 4 sec) 
Heartbeat CPU  0 instructions:   62000000 cycles:   26745227 heartbeat IPC: 2.18482 cumulative IPC: 2.31817 (Simulation time: 0 hr 1 min 5 sec) 
Heartbeat CPU  0 instructions:   63000000 cycles:   27232493 heartbeat IPC: 2.05227 cumulative IPC: 2.31341 (Simulation time: 0 hr 1 min 6 sec) 
Heartbeat CPU  0 instructions:   64000000 cycles:   27634505 heartbeat IPC: 2.48749 cumulative IPC: 2.31595 (Simulation time: 0 hr 1 min 7 sec) 
Heartbeat CPU  0 instructions:   65000000 cycles:   28001767 heartbeat IPC: 2.72285 cumulative IPC: 2.32128 (Simulation time: 0 hr 1 min 8 sec) 
Heartbeat CPU  0 instructions:   66000001 cycles:   28426853 heartbeat IPC: 2.35247 cumulative IPC: 2.32175 (Simulation time: 0 hr 1 min 9 sec) 
Heartbeat CPU  0 instructions:   67000003 cycles:   28886828 heartbeat IPC: 2.17404 cumulative IPC: 2.31940 (Simulation time: 0 hr 1 min 10 sec) 
Heartbeat CPU  0 instructions:   68000000 cycles:   29341161 heartbeat IPC: 2.20102 cumulative IPC: 2.31756 (Simulation time: 0 hr 1 min 11 sec) 
Heartbeat CPU  0 instructions:   69000001 cycles:   29828215 heartbeat IPC: 2.05316 cumulative IPC: 2.31325 (Simulation time: 0 hr 1 min 12 sec) 
Heartbeat CPU  0 instructions:   70000001 cycles:   30237264 heartbeat IPC: 2.44469 cumulative IPC: 2.31502 (Simulation time: 0 hr 1 min 13 sec) 
Heartbeat CPU  0 instructions:   71000001 cycles:   30604593 heartbeat IPC: 2.72236 cumulative IPC: 2.31991 (Simulation time: 0 hr 1 min 14 sec) 
Heartbeat CPU  0 instructions:   72000000 cycles:   31020180 heartbeat IPC: 2.40623 cumulative IPC: 2.32107 (Simulation time: 0 hr 1 min 15 sec) 
Heartbeat CPU  0 instructions:   73000000 cycles:   31477253 heartbeat IPC: 2.18783 cumulative IPC: 2.31913 (Simulation time: 0 hr 1 min 16 sec) 
Heartbeat CPU  0 instructions:   74000002 cycles:   31932873 heartbeat IPC: 2.19482 cumulative IPC: 2.31736 (Simulation time: 0 hr 1 min 17 sec) 
Heartbeat CPU  0 instructions:   75000002 cycles:   32421380 heartbeat IPC: 2.04705 cumulative IPC: 2.31329 (Simulation time: 0 hr 1 min 18 sec) 
Heartbeat CPU  0 instructions:   76000000 cycles:   32839911 heartbeat IPC: 2.38930 cumulative IPC: 2.31426 (Simulation time: 0 hr 1 min 19 sec) 
Heartbeat CPU  0 instructions:   77000003 cycles:   33207203 heartbeat IPC: 2.72264 cumulative IPC: 2.31877 (Simulation time: 0 hr 1 min 21 sec) 
Heartbeat CPU  0 instructions:   78000002 cycles:   33615303 heartbeat IPC: 2.45038 cumulative IPC: 2.32037 (Simulation time: 0 hr 1 min 22 sec) 
Heartbeat CPU  0 instructions:   79000000 cycles:   34070783 heartbeat IPC: 2.19548 cumulative IPC: 2.31870 (Simulation time: 0 hr 1 min 23 sec) 
Heartbeat CPU  0 instructions:   80000000 cycles:   34528023 heartbeat IPC: 2.18704 cumulative IPC: 2.31696 (Simulation time: 0 hr 1 min 24 sec) 
Heartbeat CPU  0 instructions:   81000001 cycles:   34987245 heartbeat IPC: 2.17760 cumulative IPC: 2.31513 (Simulation time: 0 hr 1 min 25 sec) 
Heartbeat CPU  0 instructions:   82000001 cycles:   35473691 heartbeat IPC: 2.05573 cumulative IPC: 2.31157 (Simulation time: 0 hr 1 min 26 sec) 
Heartbeat CPU  0 instructions:   83000001 cycles:   35845239 heartbeat IPC: 2.69144 cumulative IPC: 2.31551 (Simulation time: 0 hr 1 min 27 sec) 
Heartbeat CPU  0 instructions:   84000000 cycles:   36213399 heartbeat IPC: 2.71621 cumulative IPC: 2.31958 (Simulation time: 0 hr 1 min 28 sec) 
Heartbeat CPU  0 instructions:   85000003 cycles:   36668994 heartbeat IPC: 2.19494 cumulative IPC: 2.31803 (Simulation time: 0 hr 1 min 29 sec) 
Heartbeat CPU  0 instructions:   86000001 cycles:   37124867 heartbeat IPC: 2.19359 cumulative IPC: 2.31651 (Simulation time: 0 hr 1 min 30 sec) 
Heartbeat CPU  0 instructions:   87000003 cycles:   37582250 heartbeat IPC: 2.18636 cumulative IPC: 2.31492 (Simulation time: 0 hr 1 min 31 sec) 
Heartbeat CPU  0 instructions:   88000000 cycles:   38071773 heartbeat IPC: 2.04280 cumulative IPC: 2.31142 (Simulation time: 0 hr 1 min 32 sec) 
Heartbeat CPU  0 instructions:   89000002 cycles:   38474919 heartbeat IPC: 2.48050 cumulative IPC: 2.31320 (Simulation time: 0 hr 1 min 33 sec) 
Heartbeat CPU  0 instructions:   90000002 cycles:   38842295 heartbeat IPC: 2.72201 cumulative IPC: 2.31706 (Simulation time: 0 hr 1 min 34 sec) 
Heartbeat CPU  0 instructions:   91000002 cycles:   39263202 heartbeat IPC: 2.37582 cumulative IPC: 2.31769 (Simulation time: 0 hr 1 min 35 sec) 
Heartbeat CPU  0 instructions:   92000000 cycles:   39716985 heartbeat IPC: 2.20369 cumulative IPC: 2.31639 (Simulation time: 0 hr 1 min 36 sec) 
Heartbeat CPU  0 instructions:   93000002 cycles:   40173708 heartbeat IPC: 2.18952 cumulative IPC: 2.31495 (Simulation time: 0 hr 1 min 37 sec) 
Heartbeat CPU  0 instructions:   94000001 cycles:   40661918 heartbeat IPC: 2.04830 cumulative IPC: 2.31175 (Simulation time: 0 hr 1 min 38 sec) 
Heartbeat CPU  0 instructions:   95000000 cycles:   41034414 heartbeat IPC: 2.68459 cumulative IPC: 2.31513 (Simulation time: 0 hr 1 min 39 sec) 
Heartbeat CPU  0 instructions:   96000000 cycles:   41401651 heartbeat IPC: 2.72304 cumulative IPC: 2.31875 (Simulation time: 0 hr 1 min 40 sec) 
Heartbeat CPU  0 instructions:   97000001 cycles:   41847636 heartbeat IPC: 2.24223 cumulative IPC: 2.31793 (Simulation time: 0 hr 1 min 41 sec) 
Heartbeat CPU  0 instructions:   98000002 cycles:   42304411 heartbeat IPC: 2.18926 cumulative IPC: 2.31654 (Simulation time: 0 hr 1 min 42 sec) 
Heartbeat CPU  0 instructions:   99000003 cycles:   42790605 heartbeat IPC: 2.05679 cumulative IPC: 2.31359 (Simulation time: 0 hr 1 min 43 sec) 
Heartbeat CPU  0 instructions:  100000000 cycles:   43334598 heartbeat IPC: 1.83825 cumulative IPC: 2.30763 (Simulation time: 0 hr 1 min 44 sec) 

Warmup complete CPU  0 instructions:  100000001 cycles:   43334599 (Simulation time: 0 hr 1 min 44 sec) 

Heartbeat CPU  0 instructions:  101000000 cycles:   44438432 heartbeat IPC: 0.90593 cumulative IPC: 0.90593 (Simulation time: 0 hr 1 min 46 sec) 
Heartbeat CPU  0 instructions:  102000003 cycles:   45209779 heartbeat IPC: 1.29644 cumulative IPC: 1.06657 (Simulation time: 0 hr 1 min 47 sec) 
Heartbeat CPU  0 instructions:  103000000 cycles:   45983709 heartbeat IPC: 1.29210 cumulative IPC: 1.13246 (Simulation time: 0 hr 1 min 48 sec) 
Heartbeat CPU  0 instructions:  104000000 cycles:   47166430 heartbeat IPC: 0.84551 cumulative IPC: 1.04389 (Simulation time: 0 hr 1 min 50 sec) 
Heartbeat CPU  0 instructions:  105000000 cycles:   48298486 heartbeat IPC: 0.88335 cumulative IPC: 1.00727 (Simulation time: 0 hr 1 min 51 sec) 
Heartbeat CPU  0 instructions:  106000002 cycles:   49115732 heartbeat IPC: 1.22362 cumulative IPC: 1.03786 (Simulation time: 0 hr 1 min 52 sec) 
Heartbeat CPU  0 instructions:  107000003 cycles:   49751323 heartbeat IPC: 1.57334 cumulative IPC: 1.09090 (Simulation time: 0 hr 1 min 54 sec) 
Heartbeat CPU  0 instructions:  108000000 cycles:   50767549 heartbeat IPC: 0.98403 cumulative IPC: 1.07629 (Simulation time: 0 hr 1 min 55 sec) 
Heartbeat CPU  0 instructions:  109000000 cycles:   51918782 heartbeat IPC: 0.86863 cumulative IPC: 1.04844 (Simulation time: 0 hr 1 min 56 sec) 
Heartbeat CPU  0 instructions:  110000002 cycles:   52865333 heartbeat IPC: 1.05647 cumulative IPC: 1.04924 (Simulation time: 0 hr 1 min 57 sec) 
Heartbeat CPU  0 instructions:  111000001 cycles:   53561735 heartbeat IPC: 1.43595 cumulative IPC: 1.07557 (Simulation time: 0 hr 1 min 59 sec) 
Heartbeat CPU  0 instructions:  112000000 cycles:   54325914 heartbeat IPC: 1.30859 cumulative IPC: 1.09177 (Simulation time: 0 hr 2 min 0 sec) 
Heartbeat CPU  0 instructions:  113000002 cycles:   55461240 heartbeat IPC: 0.88081 cumulative IPC: 1.07202 (Simulation time: 0 hr 2 min 1 sec) 
Heartbeat CPU  0 instructions:  114000001 cycles:   56554079 heartbeat IPC: 0.91505 cumulative IPC: 1.05904 (Simulation time: 0 hr 2 min 2 sec) 
Heartbeat CPU  0 instructions:  115000000 cycles:   57528166 heartbeat IPC: 1.02660 cumulative IPC: 1.05682 (Simulation time: 0 hr 2 min 4 sec) 
Heartbeat CPU  0 instructions:  116000000 cycles:   58163648 heartbeat IPC: 1.57361 cumulative IPC: 1.07896 (Simulation time: 0 hr 2 min 5 sec) 
Heartbeat CPU  0 instructions:  117000000 cycles:   59210017 heartbeat IPC: 0.95569 cumulative IPC: 1.07084 (Simulation time: 0 hr 2 min 6 sec) 
Heartbeat CPU  0 instructions:  118000003 cycles:   60335318 heartbeat IPC: 0.88865 cumulative IPC: 1.05878 (Simulation time: 0 hr 2 min 8 sec) 
Heartbeat CPU  0 instructions:  119000002 cycles:   61496276 heartbeat IPC: 0.86136 cumulative IPC: 1.04616 (Simulation time: 0 hr 2 min 9 sec) 
Heartbeat CPU  0 instructions:  120000000 cycles:   62762326 heartbeat IPC: 0.78986 cumulative IPC: 1.02946 (Simulation time: 0 hr 2 min 10 sec) 
Heartbeat CPU  0 instructions:  121000000 cycles:   63799295 heartbeat IPC: 0.96435 cumulative IPC: 1.02616 (Simulation time: 0 hr 2 min 12 sec) 
Heartbeat CPU  0 instructions:  122000001 cycles:   64499199 heartbeat IPC: 1.42877 cumulative IPC: 1.03947 (Simulation time: 0 hr 2 min 14 sec) 
Heartbeat CPU  0 instructions:  123000001 cycles:   65279221 heartbeat IPC: 1.28202 cumulative IPC: 1.04809 (Simulation time: 0 hr 2 min 16 sec) 
Heartbeat CPU  0 instructions:  124000000 cycles:   66437354 heartbeat IPC: 0.86346 cumulative IPC: 1.03884 (Simulation time: 0 hr 2 min 17 sec) 
Heartbeat CPU  0 instructions:  125000001 cycles:   67580831 heartbeat IPC: 0.87453 cumulative IPC: 1.03109 (Simulation time: 0 hr 2 min 19 sec) 
Heartbeat CPU  0 instructions:  126000003 cycles:   68736420 heartbeat IPC: 0.86536 cumulative IPC: 1.02355 (Simulation time: 0 hr 2 min 20 sec) 
Heartbeat CPU  0 instructions:  127000000 cycles:   69869334 heartbeat IPC: 0.88268 cumulative IPC: 1.01753 (Simulation time: 0 hr 2 min 22 sec) 
Heartbeat CPU  0 instructions:  128000000 cycles:   70624521 heartbeat IPC: 1.32418 cumulative IPC: 1.02602 (Simulation time: 0 hr 2 min 23 sec) 
Heartbeat CPU  0 instructions:  129000000 cycles:   71272850 heartbeat IPC: 1.54243 cumulative IPC: 1.03800 (Simulation time: 0 hr 2 min 25 sec) 
Heartbeat CPU  0 instructions:  130000000 cycles:   72425524 heartbeat IPC: 0.86755 cumulative IPC: 1.03125 (Simulation time: 0 hr 2 min 26 sec) 
Heartbeat CPU  0 instructions:  131000002 cycles:   73569061 heartbeat IPC: 0.87448 cumulative IPC: 1.02532 (Simulation time: 0 hr 2 min 28 sec) 
Heartbeat CPU  0 instructions:  132000000 cycles:   74760637 heartbeat IPC: 0.83922 cumulative IPC: 1.01826 (Simulation time: 0 hr 2 min 30 sec) 
Heartbeat CPU  0 instructions:  133000002 cycles:   75665177 heartbeat IPC: 1.10554 cumulative IPC: 1.02071 (Simulation time: 0 hr 2 min 31 sec) 
Heartbeat CPU  0 instructions:  134000002 cycles:   76336148 heartbeat IPC: 1.49038 cumulative IPC: 1.03025 (Simulation time: 0 hr 2 min 33 sec) 
Heartbeat CPU  0 instructions:  135000001 cycles:   77199760 heartbeat IPC: 1.15793 cumulative IPC: 1.03351 (Simulation time: 0 hr 2 min 34 sec) 
Heartbeat CPU  0 instructions:  136000000 cycles:   78340073 heartbeat IPC: 0.87695 cumulative IPC: 1.02841 (Simulation time: 0 hr 2 min 36 sec) 
Heartbeat CPU  0 instructions:  137000002 cycles:   79492467 heartbeat IPC: 0.86776 cumulative IPC: 1.02329 (Simulation time: 0 hr 2 min 37 sec) 
Heartbeat CPU  0 instructions:  138000002 cycles:   80356388 heartbeat IPC: 1.15751 cumulative IPC: 1.02642 (Simulation time: 0 hr 2 min 39 sec) 
Heartbeat CPU  0 instructions:  139000002 cycles:   81012028 heartbeat IPC: 1.52523 cumulative IPC: 1.03510 (Simulation time: 0 hr 2 min 40 sec) 
Heartbeat CPU  0 instructions:  140000000 cycles:   81923217 heartbeat IPC: 1.09746 cumulative IPC: 1.03658 (Simulation time: 0 hr 2 min 41 sec) 
Heartbeat CPU  0 instructions:  141000000 cycles:   83058756 heartbeat IPC: 0.88064 cumulative IPC: 1.03212 (Simulation time: 0 hr 2 min 43 sec) 
Heartbeat CPU  0 instructions:  142000001 cycles:   84177817 heartbeat IPC: 0.89361 cumulative IPC: 1.02832 (Simulation time: 0 hr 2 min 44 sec) 
Heartbeat CPU  0 instructions:  143000003 cycles:   84953956 heartbeat IPC: 1.28843 cumulative IPC: 1.03317 (Simulation time: 0 hr 2 min 45 sec) 
Heartbeat CPU  0 instructions:  144000000 cycles:   85578715 heartbeat IPC: 1.60061 cumulative IPC: 1.04157 (Simulation time: 0 hr 2 min 46 sec) 
Heartbeat CPU  0 instructions:  145000002 cycles:   86605779 heartbeat IPC: 0.97365 cumulative IPC: 1.03995 (Simulation time: 0 hr 2 min 48 sec) 
Heartbeat CPU  0 instructions:  146000002 cycles:   87745574 heartbeat IPC: 0.87735 cumulative IPC: 1.03578 (Simulation time: 0 hr 2 min 49 sec) 
Heartbeat CPU  0 instructions:  147000002 cycles:   88738900 heartbeat IPC: 1.00672 cumulative IPC: 1.03514 (Simulation time: 0 hr 2 min 51 sec) 
Heartbeat CPU  0 instructions:  148000000 cycles:   89447657 heartbeat IPC: 1.41092 cumulative IPC: 1.04092 (Simulation time: 0 hr 2 min 52 sec) 
Heartbeat CPU  0 instructions:  149000000 cycles:   90137462 heartbeat IPC: 1.44969 cumulative IPC: 1.04694 (Simulation time: 0 hr 2 min 53 sec) 
Heartbeat CPU  0 instructions:  150000003 cycles:   91261335 heartbeat IPC: 0.88978 cumulative IPC: 1.04326 (Simulation time: 0 hr 2 min 55 sec) 
Heartbeat CPU  0 instructions:  151000002 cycles:   92429405 heartbeat IPC: 0.85611 cumulative IPC: 1.03881 (Simulation time: 0 hr 2 min 56 sec) 
Heartbeat CPU  0 instructions:  152000000 cycles:   93354251 heartbeat IPC: 1.08126 cumulative IPC: 1.03959 (Simulation time: 0 hr 2 min 57 sec) 
Heartbeat CPU  0 instructions:  153000001 cycles:   94235598 heartbeat IPC: 1.13463 cumulative IPC: 1.04124 (Simulation time: 0 hr 2 min 59 sec) 
Heartbeat CPU  0 instructions:  154000003 cycles:   94902440 heartbeat IPC: 1.49961 cumulative IPC: 1.04716 (Simulation time: 0 hr 3 min 0 sec) 
Heartbeat CPU  0 instructions:  155000003 cycles:   95759434 heartbeat IPC: 1.16687 cumulative IPC: 1.04912 (Simulation time: 0 hr 3 min 2 sec) 
Heartbeat CPU  0 instructions:  156000000 cycles:   96886384 heartbeat IPC: 0.88735 cumulative IPC: 1.04572 (Simulation time: 0 hr 3 min 3 sec) 
Heartbeat CPU  0 instructions:  157000003 cycles:   97971867 heartbeat IPC: 0.92125 cumulative IPC: 1.04324 (Simulation time: 0 hr 3 min 4 sec) 
Heartbeat CPU  0 instructions:  158000002 cycles:   98726039 heartbeat IPC: 1.32596 cumulative IPC: 1.04709 (Simulation time: 0 hr 3 min 6 sec) 
Heartbeat CPU  0 instructions:  159000001 cycles:   99339234 heartbeat IPC: 1.63080 cumulative IPC: 1.05348 (Simulation time: 0 hr 3 min 7 sec) 
Heartbeat CPU  0 instructions:  160000000 cycles:  100433954 heartbeat IPC: 0.91347 cumulative IPC: 1.05080 (Simulation time: 0 hr 3 min 8 sec) 
Heartbeat CPU  0 instructions:  161000000 cycles:  101570413 heartbeat IPC: 0.87993 cumulative IPC: 1.04747 (Simulation time: 0 hr 3 min 10 sec) 
Heartbeat CPU  0 instructions:  162000003 cycles:  102452849 heartbeat IPC: 1.13323 cumulative IPC: 1.04875 (Simulation time: 0 hr 3 min 11 sec) 
Heartbeat CPU  0 instructions:  163000002 cycles:  103118894 heartbeat IPC: 1.50140 cumulative IPC: 1.05379 (Simulation time: 0 hr 3 min 12 sec) 
Heartbeat CPU  0 instructions:  164000000 cycles:  103941959 heartbeat IPC: 1.21497 cumulative IPC: 1.05598 (Simulation time: 0 hr 3 min 14 sec) 
Heartbeat CPU  0 instructions:  165000000 cycles:  105056679 heartbeat IPC: 0.89709 cumulative IPC: 1.05311 (Simulation time: 0 hr 3 min 15 sec) 
Heartbeat CPU  0 instructions:  166000002 cycles:  106125724 heartbeat IPC: 0.93542 cumulative IPC: 1.05110 (Simulation time: 0 hr 3 min 16 sec) 
Heartbeat CPU  0 instructions:  167000001 cycles:  106867958 heartbeat IPC: 1.34728 cumulative IPC: 1.05456 (Simulation time: 0 hr 3 min 18 sec) 
Heartbeat CPU  0 instructions:  168000000 cycles:  107480224 heartbeat IPC: 1.63328 cumulative IPC: 1.06009 (Simulation time: 0 hr 3 min 19 sec) 
Heartbeat CPU  0 instructions:  169000000 cycles:  108558946 heartbeat IPC: 0.92702 cumulative IPC: 1.05789 (Simulation time: 0 hr 3 min 20 sec) 
Heartbeat CPU  0 instructions:  170000002 cycles:  109694853 heartbeat IPC: 0.88036 cumulative IPC: 1.05485 (Simulation time: 0 hr 3 min 22 sec) 
Heartbeat CPU  0 instructions:  171000003 cycles:  110588940 heartbeat IPC: 1.11846 cumulative IPC: 1.05569 (Simulation time: 0 hr 3 min 23 sec) 
Heartbeat CPU  0 instructions:  172000000 cycles:  111261653 heartbeat IPC: 1.48651 cumulative IPC: 1.05996 (Simulation time: 0 hr 3 min 24 sec) 
Heartbeat CPU  0 instructions:  173000000 cycles:  112075010 heartbeat IPC: 1.22947 cumulative IPC: 1.06197 (Simulation time: 0 hr 3 min 26 sec) 
Heartbeat CPU  0 instructions:  174000000 cycles:  113194884 heartbeat IPC: 0.89296 cumulative IPC: 1.05926 (Simulation time: 0 hr 3 min 27 sec) 
Heartbeat CPU  0 instructions:  175000002 cycles:  114276226 heartbeat IPC: 0.92478 cumulative IPC: 1.05721 (Simulation time: 0 hr 3 min 28 sec) 
Heartbeat CPU  0 instructions:  176000000 cycles:  115025348 heartbeat IPC: 1.33489 cumulative IPC: 1.06011 (Simulation time: 0 hr 3 min 30 sec) 
Heartbeat CPU  0 instructions:  177000003 cycles:  115638914 heartbeat IPC: 1.62982 cumulative IPC: 1.06494 (Simulation time: 0 hr 3 min 31 sec) 
Heartbeat CPU  0 instructions:  178000003 cycles:  116701284 heartbeat IPC: 0.94129 cumulative IPC: 1.06315 (Simulation time: 0 hr 3 min 32 sec) 
Heartbeat CPU  0 instructions:  179000003 cycles:  117843457 heartbeat IPC: 0.87552 cumulative IPC: 1.06028 (Simulation time: 0 hr 3 min 34 sec) 
Heartbeat CPU  0 instructions:  180000000 cycles:  118735034 heartbeat IPC: 1.12160 cumulative IPC: 1.06100 (Simulation time: 0 hr 3 min 35 sec) 
Heartbeat CPU  0 instructions:  181000002 cycles:  119407576 heartbeat IPC: 1.48690 cumulative IPC: 1.06477 (Simulation time: 0 hr 3 min 36 sec) 
Heartbeat CPU  0 instructions:  182000002 cycles:  120208650 heartbeat IPC: 1.24832 cumulative IPC: 1.06668 (Simulation time: 0 hr 3 min 37 sec) 
Heartbeat CPU  0 instructions:  183000002 cycles:  121305638 heartbeat IPC: 0.91159 cumulative IPC: 1.06450 (Simulation time: 0 hr 3 min 39 sec) 
Heartbeat CPU  0 instructions:  184000000 cycles:  122393267 heartbeat IPC: 0.91943 cumulative IPC: 1.06250 (Simulation time: 0 hr 3 min 40 sec) 
Heartbeat CPU  0 instructions:  185000003 cycles:  123140220 heartbeat IPC: 1.33878 cumulative IPC: 1.06509 (Simulation time: 0 hr 3 min 41 sec) 
Heartbeat CPU  0 instructions:  186000001 cycles:  123758340 heartbeat IPC: 1.61781 cumulative IPC: 1.06934 (Simulation time: 0 hr 3 min 43 sec) 
Heartbeat CPU  0 instructions:  187000002 cycles:  124817744 heartbeat IPC: 0.94393 cumulative IPC: 1.06771 (Simulation time: 0 hr 3 min 44 sec) 
Heartbeat CPU  0 instructions:  188000000 cycles:  125960518 heartbeat IPC: 0.87506 cumulative IPC: 1.06504 (Simulation time: 0 hr 3 min 45 sec) 
Heartbeat CPU  0 instructions:  189000001 cycles:  126866650 heartbeat IPC: 1.10359 cumulative IPC: 1.06546 (Simulation time: 0 hr 3 min 47 sec) 
Heartbeat CPU  0 instructions:  190000001 cycles:  127540725 heartbeat IPC: 1.48351 cumulative IPC: 1.06881 (Simulation time: 0 hr 3 min 48 sec) 
Heartbeat CPU  0 instructions:  191000003 cycles:  128341521 heartbeat IPC: 1.24876 cumulative IPC: 1.07050 (Simulation time: 0 hr 3 min 50 sec) 
Heartbeat CPU  0 instructions:  192000000 cycles:  129442602 heartbeat IPC: 0.90820 cumulative IPC: 1.06843 (Simulation time: 0 hr 3 min 51 sec) 
Heartbeat CPU  0 instructions:  193000002 cycles:  130536305 heartbeat IPC: 0.91433 cumulative IPC: 1.06649 (Simulation time: 0 hr 3 min 53 sec) 
Heartbeat CPU  0 instructions:  194000002 cycles:  131288245 heartbeat IPC: 1.32989 cumulative IPC: 1.06874 (Simulation time: 0 hr 3 min 54 sec) 
Heartbeat CPU  0 instructions:  195000003 cycles:  131906103 heartbeat IPC: 1.61850 cumulative IPC: 1.07258 (Simulation time: 0 hr 3 min 55 sec) 
Heartbeat CPU  0 instructions:  196000000 cycles:  132955333 heartbeat IPC: 0.95308 cumulative IPC: 1.07118 (Simulation time: 0 hr 3 min 57 sec) 
Heartbeat CPU  0 instructions:  197000002 cycles:  134104700 heartbeat IPC: 0.87005 cumulative IPC: 1.06863 (Simulation time: 0 hr 3 min 58 sec) 
Heartbeat CPU  0 instructions:  198000001 cycles:  134997219 heartbeat IPC: 1.12042 cumulative IPC: 1.06914 (Simulation time: 0 hr 4 min 0 sec) 
Heartbeat CPU  0 instructions:  199000001 cycles:  135671443 heartbeat IPC: 1.48319 cumulative IPC: 1.07216 (Simulation time: 0 hr 4 min 1 sec) 
Heartbeat CPU  0 instructions:  200000000 cycles:  136459916 heartbeat IPC: 1.26827 cumulative IPC: 1.07382 (Simulation time: 0 hr 4 min 2 sec) 
Finished CPU 0 instructions: 100000003 cycles: 93125325 cumulative IPC: 1.07382 (Simulation time: 0 hr 4 min 2 sec) 

ChampSim completed all CPUs

[ROI Statistics]
Core_0_instructions 100000003
Core_0_cycles 93125325
Core_0_IPC 1.07382

Core_0_branch_prediction_accuracy 97.76309
Core_0_branch_MPKI 1.93474
Core_0_average_ROB_occupancy_at_mispredict 145.41767

Core_0_L1D_total_access 15374780
Core_0_L1D_total_hit 13950040
Core_0_L1D_total_miss 1424740
Core_0_L1D_loads 14007715
Core_0_L1D_load_hit 12672575
Core_0_L1D_load_miss 1335140
Core_0_L1D_RFOs 1367065
Core_0_L1D_RFO_hit 1277465
Core_0_L1D_RFO_miss 89600
Core_0_L1D_prefetches 0
Core_0_L1D_prefetch_hit 0
Core_0_L1D_prefetch_miss 0
Core_0_L1D_writebacks 0
Core_0_L1D_writeback_hit 0
Core_0_L1D_writeback_miss 0
Core_0_L1D_prefetch_requested 0
Core_0_L1D_prefetch_issued 0
Core_0_L1D_prefetch_useful 0
Core_0_L1D_prefetch_useless 0
Core_0_L1D_prefetch_late 0
Core_0_L1D_average_miss_latency 42.42980

Core_0_L1I_total_access 24454919
Core_0_L1I_total_hit 24454618
Core_0_L1I_total_miss 301
Core_0_L1I_loads 24454919
Core_0_L1I_load_hit 24454618
Core_0_L1I_load_miss 301
Core_0_L1I_RFOs 0
Core_0_L1I_RFO_hit 0
Core_0_L1I_RFO_miss 0
Core_0_L1I_prefetches 0
Core_0_L1I_prefetch_hit 0
Core_0_L1I_prefetch_miss 0
Core_0_L1I_writebacks 0
Core_0_L1I_writeback_hit 0
Core_0_L1I_writeback_miss 0
Core_0_L1I_prefetch_requested 0
Core_0_L1I_prefetch_issued 0
Core_0_L1I_prefetch_useful 0
Core_0_L1I_prefetch_useless 0
Core_0_L1I_prefetch_late 0
Core_0_L1I_average_miss_latency 182.96346

Core_0_L2C_total_access 2596617
Core_0_L2C_total_hit 1296329
Core_0_L2C_total_miss 1300288
Core_0_L2C_loads 1335438
Core_0_L2C_load_hit 941727
Core_0_L2C_load_miss 393711
Core_0_L2C_RFOs 89599
Core_0_L2C_RFO_hit 8417
Core_0_L2C_RFO_miss 81182
Core_0_L2C_prefetches 1061034
Core_0_L2C_prefetch_hit 235903
Core_0_L2C_prefetch_miss 825131
Core_0_L2C_writebacks 110546
Core_0_L2C_writeback_hit 110282
Core_0_L2C_writeback_miss 264
Core_0_L2C_prefetch_requested 2747281
Core_0_L2C_prefetch_issued 2699724
Core_0_L2C_prefetch_useful 1725804
Core_0_L2C_prefetch_useless 185156
Core_0_L2C_prefetch_late 219438
Core_0_L2C_average_miss_latency 87.13222

Core_0_LLC_total_access 1404926
Core_0_LLC_total_hit 710022
Core_0_LLC_total_miss 694904
Core_0_LLC_loads 178338
Core_0_LLC_load_hit 81023
Core_0_LLC_load_miss 97315
Core_0_LLC_RFOs 81182
Core_0_LLC_RFO_hit 70362
Core_0_LLC_RFO_miss 10820
Core_0_LLC_prefetches 1040500
Core_0_LLC_prefetch_hit 472936
Core_0_LLC_prefetch_miss 567564
Core_0_LLC_writebacks 104906
Core_0_LLC_writeback_hit 85701
Core_0_LLC_writeback_miss 19205
Core_0_LLC_prefetch_requested 0
Core_0_LLC_prefetch_issued 0
Core_0_LLC_prefetch_useful 5101
Core_0_LLC_prefetch_useless 1355350
Core_0_LLC_prefetch_late 0
Core_0_LLC_average_miss_latency 129.17874

Core_0_major_page_fault 0
Core_0_minor_page_fault 3151

CPU 0 L2C next line prefetcher final stats
Channel_0_RQ_row_buffer_hit 461932
Channel_0_RQ_row_buffer_miss 213766
Channel_0_WQ_row_buffer_hit 9717
Channel_0_WQ_row_buffer_miss 14725
Channel_0_WQ_full 0
Channel_0_dbus_congested 91177

avg_congested_cycle 7
