*************************************************
   ChampSim Multicore Out-of-Order Simulator
   Last compiled: Dec 22 2023 14:21:10
*************************************************

trace_0 ./test_trace/482.sphinx3-1100B.champsimtrace.xz
CPU 0 L2C IP-based stride prefetcher
Initialize SRRIP state
LLC Next Line Prefetcher
warmup_instructions 100000000
simulation_instructions 100000000
champsim_seed 260

num_cpus 1
cpu_freq 4000
dram_io_freq 2400
page_size 4096
block_size 64
max_read_per_cycle 8
max_fill_per_cycle 1
dram_channels 1
dram_ranks 1
dram_banks 8
dram_rows 65536
dram_columns 128
dram_row_size 8
dram_size 4096
dram_pages 1048576

fetch_width 6
decode_width 6
exec_width 4
lq_width 2
sq_width 2
retire_width 4
scheduler_size 128
branch_mispredict_penalty 20
rob_size 256
lq_size 72
sq_size 56
num_instr_destinations_sparc 4
num_instr_destinations 2
num_instr_sources 4

itlb_set 16
itlb_way 8
itlb_rq_size 16
itlb_wq_size 16
itlb_pq_size 0
itlb_mshr_size 8
itlb_latency 1

dtlb_set 16
dtlb_way 4
dtlb_rq_size 16
dtlb_wq_size 16
dtlb_pq_size 0
dtlb_mshr_size 8
dtlb_latency 1

stlb_set 128
stlb_way 12
stlb_rq_size 32
stlb_wq_size 32
stlb_pq_size 0
stlb_mshr_size 16
stlb_latency 8

l1i_size 32
l1i_set 64
l1i_way 8
l1i_rq_size 64
l1i_wq_size 64
l1i_pq_size 8
l1i_mshr_size 8
l1i_latency 1

l1d_size 32
l1d_set 64
l1d_way 8
l1d_rq_size 64
l1d_wq_size 64
l1d_pq_size 8
l1d_mshr_size 16
l1d_latency 4

l2c_size 512
l2c_set 1024
l2c_way 8
l2c_rq_size 32
l2c_wq_size 32
l2c_pq_size 16
l2c_mshr_size 32
l2c_latency 10

llc_size 2048
llc_set 2048
llc_way 16
llc_rq_size 32
llc_wq_size 32
llc_pq_size 32
llc_mshr_size 64
llc_latency 20

dram_channel_width 8
dram_wq_size 64
dram_rq_size 64
tRP 15
tRCD 15
tCAS 12.5
dram_dbus_turn_around_time 30
dram_write_high_wm 56
dram_write_low_wm 48
min_dram_writes_per_switch 16
dram_mtps 2400
dram_dbus_return_time 13


Heartbeat CPU  0 instructions:    1000001 cycles:     367675 heartbeat IPC: 2.71980 cumulative IPC: 2.71980 (Simulation time: 0 hr 0 min 1 sec) 
Heartbeat CPU  0 instructions:    2000003 cycles:     795129 heartbeat IPC: 2.33944 cumulative IPC: 2.51532 (Simulation time: 0 hr 0 min 2 sec) 
Heartbeat CPU  0 instructions:    3000001 cycles:    1252896 heartbeat IPC: 2.18451 cumulative IPC: 2.39445 (Simulation time: 0 hr 0 min 3 sec) 
Heartbeat CPU  0 instructions:    4000000 cycles:    1735470 heartbeat IPC: 2.07222 cumulative IPC: 2.30485 (Simulation time: 0 hr 0 min 4 sec) 
Heartbeat CPU  0 instructions:    5000000 cycles:    2178042 heartbeat IPC: 2.25952 cumulative IPC: 2.29564 (Simulation time: 0 hr 0 min 5 sec) 
Heartbeat CPU  0 instructions:    6000001 cycles:    2545367 heartbeat IPC: 2.72239 cumulative IPC: 2.35722 (Simulation time: 0 hr 0 min 6 sec) 
Heartbeat CPU  0 instructions:    7000000 cycles:    2936378 heartbeat IPC: 2.55747 cumulative IPC: 2.38389 (Simulation time: 0 hr 0 min 7 sec) 
Heartbeat CPU  0 instructions:    8000000 cycles:    3395111 heartbeat IPC: 2.17992 cumulative IPC: 2.35633 (Simulation time: 0 hr 0 min 8 sec) 
Heartbeat CPU  0 instructions:    9000000 cycles:    3853312 heartbeat IPC: 2.18245 cumulative IPC: 2.33565 (Simulation time: 0 hr 0 min 9 sec) 
Heartbeat CPU  0 instructions:   10000000 cycles:    4343903 heartbeat IPC: 2.03836 cumulative IPC: 2.30208 (Simulation time: 0 hr 0 min 10 sec) 
Heartbeat CPU  0 instructions:   11000001 cycles:    4716196 heartbeat IPC: 2.68606 cumulative IPC: 2.33239 (Simulation time: 0 hr 0 min 12 sec) 
Heartbeat CPU  0 instructions:   12000000 cycles:    5083332 heartbeat IPC: 2.72378 cumulative IPC: 2.36066 (Simulation time: 0 hr 0 min 13 sec) 
Heartbeat CPU  0 instructions:   13000001 cycles:    5532585 heartbeat IPC: 2.22592 cumulative IPC: 2.34972 (Simulation time: 0 hr 0 min 14 sec) 
Heartbeat CPU  0 instructions:   14000000 cycles:    5990805 heartbeat IPC: 2.18236 cumulative IPC: 2.33691 (Simulation time: 0 hr 0 min 15 sec) 
Heartbeat CPU  0 instructions:   15000000 cycles:    6473502 heartbeat IPC: 2.07169 cumulative IPC: 2.31714 (Simulation time: 0 hr 0 min 16 sec) 
Heartbeat CPU  0 instructions:   16000000 cycles:    6883585 heartbeat IPC: 2.43853 cumulative IPC: 2.32437 (Simulation time: 0 hr 0 min 17 sec) 
Heartbeat CPU  0 instructions:   17000003 cycles:    7250792 heartbeat IPC: 2.72327 cumulative IPC: 2.34457 (Simulation time: 0 hr 0 min 18 sec) 
Heartbeat CPU  0 instructions:   18000003 cycles:    7662776 heartbeat IPC: 2.42728 cumulative IPC: 2.34902 (Simulation time: 0 hr 0 min 19 sec) 
Heartbeat CPU  0 instructions:   19000003 cycles:    8120942 heartbeat IPC: 2.18262 cumulative IPC: 2.33963 (Simulation time: 0 hr 0 min 20 sec) 
Heartbeat CPU  0 instructions:   20000000 cycles:    8589561 heartbeat IPC: 2.13392 cumulative IPC: 2.32841 (Simulation time: 0 hr 0 min 21 sec) 
Heartbeat CPU  0 instructions:   21000002 cycles:    9048912 heartbeat IPC: 2.17699 cumulative IPC: 2.32072 (Simulation time: 0 hr 0 min 22 sec) 
Heartbeat CPU  0 instructions:   22000003 cycles:    9416147 heartbeat IPC: 2.72305 cumulative IPC: 2.33641 (Simulation time: 0 hr 0 min 23 sec) 
Heartbeat CPU  0 instructions:   23000001 cycles:    9796806 heartbeat IPC: 2.62702 cumulative IPC: 2.34770 (Simulation time: 0 hr 0 min 25 sec) 
Heartbeat CPU  0 instructions:   24000000 cycles:   10252264 heartbeat IPC: 2.19559 cumulative IPC: 2.34095 (Simulation time: 0 hr 0 min 26 sec) 
Heartbeat CPU  0 instructions:   25000002 cycles:   10707964 heartbeat IPC: 2.19443 cumulative IPC: 2.33471 (Simulation time: 0 hr 0 min 27 sec) 
Heartbeat CPU  0 instructions:   26000002 cycles:   11187107 heartbeat IPC: 2.08706 cumulative IPC: 2.32410 (Simulation time: 0 hr 0 min 28 sec) 
Heartbeat CPU  0 instructions:   27000001 cycles:   11580312 heartbeat IPC: 2.54320 cumulative IPC: 2.33154 (Simulation time: 0 hr 0 min 29 sec) 
Heartbeat CPU  0 instructions:   28000000 cycles:   11947294 heartbeat IPC: 2.72493 cumulative IPC: 2.34363 (Simulation time: 0 hr 0 min 30 sec) 
Heartbeat CPU  0 instructions:   29000001 cycles:   12383661 heartbeat IPC: 2.29165 cumulative IPC: 2.34180 (Simulation time: 0 hr 0 min 31 sec) 
Heartbeat CPU  0 instructions:   30000003 cycles:   12837409 heartbeat IPC: 2.20387 cumulative IPC: 2.33692 (Simulation time: 0 hr 0 min 32 sec) 
Heartbeat CPU  0 instructions:   31000002 cycles:   13291535 heartbeat IPC: 2.20203 cumulative IPC: 2.33231 (Simulation time: 0 hr 0 min 33 sec) 
Heartbeat CPU  0 instructions:   32000000 cycles:   13775103 heartbeat IPC: 2.06796 cumulative IPC: 2.32303 (Simulation time: 0 hr 0 min 34 sec) 
Heartbeat CPU  0 instructions:   33000003 cycles:   14176311 heartbeat IPC: 2.49248 cumulative IPC: 2.32783 (Simulation time: 0 hr 0 min 35 sec) 
Heartbeat CPU  0 instructions:   34000003 cycles:   14543344 heartbeat IPC: 2.72455 cumulative IPC: 2.33784 (Simulation time: 0 hr 0 min 36 sec) 
Heartbeat CPU  0 instructions:   35000000 cycles:   14970531 heartbeat IPC: 2.34089 cumulative IPC: 2.33793 (Simulation time: 0 hr 0 min 37 sec) 
Heartbeat CPU  0 instructions:   36000000 cycles:   15424443 heartbeat IPC: 2.20307 cumulative IPC: 2.33396 (Simulation time: 0 hr 0 min 38 sec) 
Heartbeat CPU  0 instructions:   37000000 cycles:   15878656 heartbeat IPC: 2.20161 cumulative IPC: 2.33017 (Simulation time: 0 hr 0 min 40 sec) 
Heartbeat CPU  0 instructions:   38000003 cycles:   16366863 heartbeat IPC: 2.04832 cumulative IPC: 2.32176 (Simulation time: 0 hr 0 min 41 sec) 
Heartbeat CPU  0 instructions:   39000001 cycles:   16774348 heartbeat IPC: 2.45407 cumulative IPC: 2.32498 (Simulation time: 0 hr 0 min 42 sec) 
Heartbeat CPU  0 instructions:   40000000 cycles:   17141498 heartbeat IPC: 2.72368 cumulative IPC: 2.33352 (Simulation time: 0 hr 0 min 43 sec) 
Heartbeat CPU  0 instructions:   41000003 cycles:   17561743 heartbeat IPC: 2.37957 cumulative IPC: 2.33462 (Simulation time: 0 hr 0 min 44 sec) 
Heartbeat CPU  0 instructions:   42000000 cycles:   18019835 heartbeat IPC: 2.18296 cumulative IPC: 2.33077 (Simulation time: 0 hr 0 min 45 sec) 
Heartbeat CPU  0 instructions:   43000001 cycles:   18476344 heartbeat IPC: 2.19054 cumulative IPC: 2.32730 (Simulation time: 0 hr 0 min 46 sec) 
Heartbeat CPU  0 instructions:   44000000 cycles:   18966941 heartbeat IPC: 2.03833 cumulative IPC: 2.31983 (Simulation time: 0 hr 0 min 47 sec) 
Heartbeat CPU  0 instructions:   45000002 cycles:   19379197 heartbeat IPC: 2.42568 cumulative IPC: 2.32208 (Simulation time: 0 hr 0 min 48 sec) 
Heartbeat CPU  0 instructions:   46000000 cycles:   19746416 heartbeat IPC: 2.72317 cumulative IPC: 2.32954 (Simulation time: 0 hr 0 min 49 sec) 
Heartbeat CPU  0 instructions:   47000002 cycles:   20159616 heartbeat IPC: 2.42014 cumulative IPC: 2.33139 (Simulation time: 0 hr 0 min 50 sec) 
Heartbeat CPU  0 instructions:   48000000 cycles:   20619389 heartbeat IPC: 2.17498 cumulative IPC: 2.32791 (Simulation time: 0 hr 0 min 51 sec) 
Heartbeat CPU  0 instructions:   49000003 cycles:   21076221 heartbeat IPC: 2.18900 cumulative IPC: 2.32490 (Simulation time: 0 hr 0 min 52 sec) 
Heartbeat CPU  0 instructions:   50000003 cycles:   21587170 heartbeat IPC: 1.95714 cumulative IPC: 2.31619 (Simulation time: 0 hr 0 min 53 sec) 
Heartbeat CPU  0 instructions:   51000002 cycles:   22049380 heartbeat IPC: 2.16352 cumulative IPC: 2.31299 (Simulation time: 0 hr 0 min 54 sec) 
Heartbeat CPU  0 instructions:   52000000 cycles:   22422618 heartbeat IPC: 2.67925 cumulative IPC: 2.31909 (Simulation time: 0 hr 0 min 56 sec) 
Heartbeat CPU  0 instructions:   53000001 cycles:   22789920 heartbeat IPC: 2.72256 cumulative IPC: 2.32559 (Simulation time: 0 hr 0 min 57 sec) 
Heartbeat CPU  0 instructions:   54000001 cycles:   23239504 heartbeat IPC: 2.22428 cumulative IPC: 2.32363 (Simulation time: 0 hr 0 min 58 sec) 
Heartbeat CPU  0 instructions:   55000001 cycles:   23693136 heartbeat IPC: 2.20443 cumulative IPC: 2.32135 (Simulation time: 0 hr 0 min 59 sec) 
Heartbeat CPU  0 instructions:   56000000 cycles:   24150345 heartbeat IPC: 2.18718 cumulative IPC: 2.31881 (Simulation time: 0 hr 1 min 0 sec) 
Heartbeat CPU  0 instructions:   57000003 cycles:   24635973 heartbeat IPC: 2.05920 cumulative IPC: 2.31369 (Simulation time: 0 hr 1 min 1 sec) 
Heartbeat CPU  0 instructions:   58000001 cycles:   25029618 heartbeat IPC: 2.54035 cumulative IPC: 2.31725 (Simulation time: 0 hr 1 min 2 sec) 
Heartbeat CPU  0 instructions:   59000001 cycles:   25396715 heartbeat IPC: 2.72408 cumulative IPC: 2.32314 (Simulation time: 0 hr 1 min 3 sec) 
Heartbeat CPU  0 instructions:   60000000 cycles:   25836145 heartbeat IPC: 2.27567 cumulative IPC: 2.32233 (Simulation time: 0 hr 1 min 4 sec) 
Heartbeat CPU  0 instructions:   61000000 cycles:   26292266 heartbeat IPC: 2.19240 cumulative IPC: 2.32007 (Simulation time: 0 hr 1 min 5 sec) 
Heartbeat CPU  0 instructions:   62000000 cycles:   26749930 heartbeat IPC: 2.18501 cumulative IPC: 2.31776 (Simulation time: 0 hr 1 min 6 sec) 
Heartbeat CPU  0 instructions:   63000000 cycles:   27237620 heartbeat IPC: 2.05048 cumulative IPC: 2.31298 (Simulation time: 0 hr 1 min 7 sec) 
Heartbeat CPU  0 instructions:   64000000 cycles:   27639803 heartbeat IPC: 2.48643 cumulative IPC: 2.31550 (Simulation time: 0 hr 1 min 9 sec) 
Heartbeat CPU  0 instructions:   65000000 cycles:   28007052 heartbeat IPC: 2.72295 cumulative IPC: 2.32084 (Simulation time: 0 hr 1 min 10 sec) 
Heartbeat CPU  0 instructions:   66000001 cycles:   28432323 heartbeat IPC: 2.35144 cumulative IPC: 2.32130 (Simulation time: 0 hr 1 min 11 sec) 
Heartbeat CPU  0 instructions:   67000003 cycles:   28892226 heartbeat IPC: 2.17438 cumulative IPC: 2.31896 (Simulation time: 0 hr 1 min 12 sec) 
Heartbeat CPU  0 instructions:   68000000 cycles:   29346548 heartbeat IPC: 2.20108 cumulative IPC: 2.31714 (Simulation time: 0 hr 1 min 13 sec) 
Heartbeat CPU  0 instructions:   69000001 cycles:   29833940 heartbeat IPC: 2.05174 cumulative IPC: 2.31280 (Simulation time: 0 hr 1 min 14 sec) 
Heartbeat CPU  0 instructions:   70000001 cycles:   30243197 heartbeat IPC: 2.44345 cumulative IPC: 2.31457 (Simulation time: 0 hr 1 min 15 sec) 
Heartbeat CPU  0 instructions:   71000001 cycles:   30610490 heartbeat IPC: 2.72262 cumulative IPC: 2.31947 (Simulation time: 0 hr 1 min 16 sec) 
Heartbeat CPU  0 instructions:   72000000 cycles:   31026209 heartbeat IPC: 2.40547 cumulative IPC: 2.32062 (Simulation time: 0 hr 1 min 17 sec) 
Heartbeat CPU  0 instructions:   73000000 cycles:   31483211 heartbeat IPC: 2.18817 cumulative IPC: 2.31870 (Simulation time: 0 hr 1 min 18 sec) 
Heartbeat CPU  0 instructions:   74000002 cycles:   31938865 heartbeat IPC: 2.19465 cumulative IPC: 2.31693 (Simulation time: 0 hr 1 min 19 sec) 
Heartbeat CPU  0 instructions:   75000002 cycles:   32427677 heartbeat IPC: 2.04578 cumulative IPC: 2.31284 (Simulation time: 0 hr 1 min 20 sec) 
Heartbeat CPU  0 instructions:   76000000 cycles:   32846536 heartbeat IPC: 2.38743 cumulative IPC: 2.31379 (Simulation time: 0 hr 1 min 21 sec) 
Heartbeat CPU  0 instructions:   77000003 cycles:   33213796 heartbeat IPC: 2.72287 cumulative IPC: 2.31831 (Simulation time: 0 hr 1 min 23 sec) 
Heartbeat CPU  0 instructions:   78000002 cycles:   33622052 heartbeat IPC: 2.44944 cumulative IPC: 2.31991 (Simulation time: 0 hr 1 min 24 sec) 
Heartbeat CPU  0 instructions:   79000000 cycles:   34077519 heartbeat IPC: 2.19554 cumulative IPC: 2.31824 (Simulation time: 0 hr 1 min 25 sec) 
Heartbeat CPU  0 instructions:   80000000 cycles:   34534742 heartbeat IPC: 2.18712 cumulative IPC: 2.31651 (Simulation time: 0 hr 1 min 26 sec) 
Heartbeat CPU  0 instructions:   81000001 cycles:   34993919 heartbeat IPC: 2.17781 cumulative IPC: 2.31469 (Simulation time: 0 hr 1 min 27 sec) 
Heartbeat CPU  0 instructions:   82000001 cycles:   35481021 heartbeat IPC: 2.05296 cumulative IPC: 2.31109 (Simulation time: 0 hr 1 min 28 sec) 
Heartbeat CPU  0 instructions:   83000001 cycles:   35852610 heartbeat IPC: 2.69115 cumulative IPC: 2.31503 (Simulation time: 0 hr 1 min 29 sec) 
Heartbeat CPU  0 instructions:   84000000 cycles:   36220735 heartbeat IPC: 2.71647 cumulative IPC: 2.31911 (Simulation time: 0 hr 1 min 30 sec) 
Heartbeat CPU  0 instructions:   85000003 cycles:   36676505 heartbeat IPC: 2.19410 cumulative IPC: 2.31756 (Simulation time: 0 hr 1 min 31 sec) 
Heartbeat CPU  0 instructions:   86000001 cycles:   37132325 heartbeat IPC: 2.19384 cumulative IPC: 2.31604 (Simulation time: 0 hr 1 min 32 sec) 
Heartbeat CPU  0 instructions:   87000003 cycles:   37589739 heartbeat IPC: 2.18621 cumulative IPC: 2.31446 (Simulation time: 0 hr 1 min 33 sec) 
Heartbeat CPU  0 instructions:   88000000 cycles:   38079753 heartbeat IPC: 2.04075 cumulative IPC: 2.31094 (Simulation time: 0 hr 1 min 34 sec) 
Heartbeat CPU  0 instructions:   89000002 cycles:   38483111 heartbeat IPC: 2.47919 cumulative IPC: 2.31270 (Simulation time: 0 hr 1 min 35 sec) 
Heartbeat CPU  0 instructions:   90000002 cycles:   38850423 heartbeat IPC: 2.72248 cumulative IPC: 2.31658 (Simulation time: 0 hr 1 min 36 sec) 
Heartbeat CPU  0 instructions:   91000002 cycles:   39271348 heartbeat IPC: 2.37572 cumulative IPC: 2.31721 (Simulation time: 0 hr 1 min 38 sec) 
Heartbeat CPU  0 instructions:   92000000 cycles:   39725077 heartbeat IPC: 2.20395 cumulative IPC: 2.31592 (Simulation time: 0 hr 1 min 39 sec) 
Heartbeat CPU  0 instructions:   93000002 cycles:   40181894 heartbeat IPC: 2.18906 cumulative IPC: 2.31448 (Simulation time: 0 hr 1 min 40 sec) 
Heartbeat CPU  0 instructions:   94000001 cycles:   40670628 heartbeat IPC: 2.04610 cumulative IPC: 2.31125 (Simulation time: 0 hr 1 min 41 sec) 
Heartbeat CPU  0 instructions:   95000003 cycles:   41043104 heartbeat IPC: 2.68474 cumulative IPC: 2.31464 (Simulation time: 0 hr 1 min 42 sec) 
Heartbeat CPU  0 instructions:   96000000 cycles:   41410281 heartbeat IPC: 2.72347 cumulative IPC: 2.31826 (Simulation time: 0 hr 1 min 43 sec) 
Heartbeat CPU  0 instructions:   97000001 cycles:   41856293 heartbeat IPC: 2.24209 cumulative IPC: 2.31745 (Simulation time: 0 hr 1 min 44 sec) 
Heartbeat CPU  0 instructions:   98000002 cycles:   42313008 heartbeat IPC: 2.18955 cumulative IPC: 2.31607 (Simulation time: 0 hr 1 min 45 sec) 
Heartbeat CPU  0 instructions:   99000003 cycles:   42799411 heartbeat IPC: 2.05591 cumulative IPC: 2.31312 (Simulation time: 0 hr 1 min 46 sec) 
Heartbeat CPU  0 instructions:  100000000 cycles:   43343458 heartbeat IPC: 1.83807 cumulative IPC: 2.30715 (Simulation time: 0 hr 1 min 47 sec) 

Warmup complete CPU  0 instructions:  100000001 cycles:   43343459 (Simulation time: 0 hr 1 min 47 sec) 

Heartbeat CPU  0 instructions:  101000001 cycles:   44247085 heartbeat IPC: 1.10665 cumulative IPC: 1.10665 (Simulation time: 0 hr 1 min 48 sec) 
Heartbeat CPU  0 instructions:  102000003 cycles:   44946647 heartbeat IPC: 1.42947 cumulative IPC: 1.24752 (Simulation time: 0 hr 1 min 50 sec) 
Heartbeat CPU  0 instructions:  103000000 cycles:   45789036 heartbeat IPC: 1.18710 cumulative IPC: 1.22670 (Simulation time: 0 hr 1 min 51 sec) 
Heartbeat CPU  0 instructions:  104000000 cycles:   46896692 heartbeat IPC: 0.90281 cumulative IPC: 1.12574 (Simulation time: 0 hr 1 min 53 sec) 
Heartbeat CPU  0 instructions:  105000000 cycles:   47970777 heartbeat IPC: 0.93103 cumulative IPC: 1.08054 (Simulation time: 0 hr 1 min 54 sec) 
Heartbeat CPU  0 instructions:  106000003 cycles:   48692858 heartbeat IPC: 1.38489 cumulative IPC: 1.12162 (Simulation time: 0 hr 1 min 55 sec) 
Heartbeat CPU  0 instructions:  107000003 cycles:   49343267 heartbeat IPC: 1.53749 cumulative IPC: 1.16670 (Simulation time: 0 hr 1 min 57 sec) 
Heartbeat CPU  0 instructions:  108000000 cycles:   50305954 heartbeat IPC: 1.03876 cumulative IPC: 1.14901 (Simulation time: 0 hr 1 min 58 sec) 
Heartbeat CPU  0 instructions:  109000000 cycles:   51369340 heartbeat IPC: 0.94039 cumulative IPC: 1.12137 (Simulation time: 0 hr 1 min 59 sec) 
Heartbeat CPU  0 instructions:  110000001 cycles:   52227123 heartbeat IPC: 1.16580 cumulative IPC: 1.12566 (Simulation time: 0 hr 2 min 0 sec) 
Heartbeat CPU  0 instructions:  111000000 cycles:   52860276 heartbeat IPC: 1.57940 cumulative IPC: 1.15585 (Simulation time: 0 hr 2 min 2 sec) 
Heartbeat CPU  0 instructions:  112000000 cycles:   53630938 heartbeat IPC: 1.29759 cumulative IPC: 1.16647 (Simulation time: 0 hr 2 min 3 sec) 
Heartbeat CPU  0 instructions:  113000003 cycles:   54679888 heartbeat IPC: 0.95334 cumulative IPC: 1.14675 (Simulation time: 0 hr 2 min 4 sec) 
Heartbeat CPU  0 instructions:  114000001 cycles:   55708494 heartbeat IPC: 0.97219 cumulative IPC: 1.13222 (Simulation time: 0 hr 2 min 6 sec) 
Heartbeat CPU  0 instructions:  115000000 cycles:   56572639 heartbeat IPC: 1.15721 cumulative IPC: 1.13386 (Simulation time: 0 hr 2 min 7 sec) 
Heartbeat CPU  0 instructions:  116000000 cycles:   57208349 heartbeat IPC: 1.57304 cumulative IPC: 1.15399 (Simulation time: 0 hr 2 min 8 sec) 
Heartbeat CPU  0 instructions:  117000000 cycles:   58179458 heartbeat IPC: 1.02975 cumulative IPC: 1.14586 (Simulation time: 0 hr 2 min 10 sec) 
Heartbeat CPU  0 instructions:  118000003 cycles:   59195082 heartbeat IPC: 0.98462 cumulative IPC: 1.13553 (Simulation time: 0 hr 2 min 11 sec) 
Heartbeat CPU  0 instructions:  119000002 cycles:   60244691 heartbeat IPC: 0.95273 cumulative IPC: 1.12418 (Simulation time: 0 hr 2 min 12 sec) 
Heartbeat CPU  0 instructions:  120000000 cycles:   61454723 heartbeat IPC: 0.82642 cumulative IPC: 1.10429 (Simulation time: 0 hr 2 min 14 sec) 
Heartbeat CPU  0 instructions:  121000000 cycles:   62370102 heartbeat IPC: 1.09244 cumulative IPC: 1.10372 (Simulation time: 0 hr 2 min 15 sec) 
Heartbeat CPU  0 instructions:  122000001 cycles:   63015741 heartbeat IPC: 1.54885 cumulative IPC: 1.11832 (Simulation time: 0 hr 2 min 16 sec) 
Heartbeat CPU  0 instructions:  123000001 cycles:   63792908 heartbeat IPC: 1.28672 cumulative IPC: 1.12472 (Simulation time: 0 hr 2 min 18 sec) 
Heartbeat CPU  0 instructions:  124000000 cycles:   64853720 heartbeat IPC: 0.94267 cumulative IPC: 1.11575 (Simulation time: 0 hr 2 min 19 sec) 
Heartbeat CPU  0 instructions:  125000001 cycles:   65895091 heartbeat IPC: 0.96027 cumulative IPC: 1.10857 (Simulation time: 0 hr 2 min 20 sec) 
Heartbeat CPU  0 instructions:  126000003 cycles:   66951670 heartbeat IPC: 0.94645 cumulative IPC: 1.10131 (Simulation time: 0 hr 2 min 22 sec) 
Heartbeat CPU  0 instructions:  127000000 cycles:   68059155 heartbeat IPC: 0.90294 cumulative IPC: 1.09242 (Simulation time: 0 hr 2 min 23 sec) 
Heartbeat CPU  0 instructions:  128000000 cycles:   68719036 heartbeat IPC: 1.51542 cumulative IPC: 1.10342 (Simulation time: 0 hr 2 min 24 sec) 
Heartbeat CPU  0 instructions:  129000000 cycles:   69398603 heartbeat IPC: 1.47153 cumulative IPC: 1.11302 (Simulation time: 0 hr 2 min 25 sec) 
Heartbeat CPU  0 instructions:  130000000 cycles:   70468251 heartbeat IPC: 0.93489 cumulative IPC: 1.10600 (Simulation time: 0 hr 2 min 27 sec) 
Heartbeat CPU  0 instructions:  131000002 cycles:   71523760 heartbeat IPC: 0.94741 cumulative IPC: 1.10006 (Simulation time: 0 hr 2 min 28 sec) 
Heartbeat CPU  0 instructions:  132000000 cycles:   72679425 heartbeat IPC: 0.86530 cumulative IPC: 1.09081 (Simulation time: 0 hr 2 min 29 sec) 
Heartbeat CPU  0 instructions:  133000000 cycles:   73491089 heartbeat IPC: 1.23204 cumulative IPC: 1.09461 (Simulation time: 0 hr 2 min 31 sec) 
Heartbeat CPU  0 instructions:  134000002 cycles:   74134874 heartbeat IPC: 1.55332 cumulative IPC: 1.10420 (Simulation time: 0 hr 2 min 32 sec) 
Heartbeat CPU  0 instructions:  135000001 cycles:   74990210 heartbeat IPC: 1.16913 cumulative IPC: 1.10596 (Simulation time: 0 hr 2 min 33 sec) 
Heartbeat CPU  0 instructions:  136000000 cycles:   76054616 heartbeat IPC: 0.93949 cumulative IPC: 1.10054 (Simulation time: 0 hr 2 min 35 sec) 
Heartbeat CPU  0 instructions:  137000002 cycles:   77166024 heartbeat IPC: 0.89976 cumulative IPC: 1.09394 (Simulation time: 0 hr 2 min 36 sec) 
Heartbeat CPU  0 instructions:  138000002 cycles:   77927637 heartbeat IPC: 1.31300 cumulative IPC: 1.09877 (Simulation time: 0 hr 2 min 37 sec) 
Heartbeat CPU  0 instructions:  139000002 cycles:   78575072 heartbeat IPC: 1.54456 cumulative IPC: 1.10696 (Simulation time: 0 hr 2 min 39 sec) 
Heartbeat CPU  0 instructions:  140000000 cycles:   79471690 heartbeat IPC: 1.11530 cumulative IPC: 1.10717 (Simulation time: 0 hr 2 min 40 sec) 
Heartbeat CPU  0 instructions:  141000000 cycles:   80538477 heartbeat IPC: 0.93739 cumulative IPC: 1.10230 (Simulation time: 0 hr 2 min 41 sec) 
Heartbeat CPU  0 instructions:  142000001 cycles:   81608768 heartbeat IPC: 0.93433 cumulative IPC: 1.09760 (Simulation time: 0 hr 2 min 43 sec) 
Heartbeat CPU  0 instructions:  143000003 cycles:   82296013 heartbeat IPC: 1.45509 cumulative IPC: 1.10391 (Simulation time: 0 hr 2 min 44 sec) 
Heartbeat CPU  0 instructions:  144000000 cycles:   82934253 heartbeat IPC: 1.56680 cumulative IPC: 1.11137 (Simulation time: 0 hr 2 min 45 sec) 
Heartbeat CPU  0 instructions:  145000002 cycles:   83928070 heartbeat IPC: 1.00622 cumulative IPC: 1.10879 (Simulation time: 0 hr 2 min 47 sec) 
Heartbeat CPU  0 instructions:  146000002 cycles:   85009472 heartbeat IPC: 0.92473 cumulative IPC: 1.10402 (Simulation time: 0 hr 2 min 48 sec) 
Heartbeat CPU  0 instructions:  147000002 cycles:   85961124 heartbeat IPC: 1.05080 cumulative IPC: 1.10283 (Simulation time: 0 hr 2 min 49 sec) 
Heartbeat CPU  0 instructions:  148000000 cycles:   86596979 heartbeat IPC: 1.57268 cumulative IPC: 1.10974 (Simulation time: 0 hr 2 min 50 sec) 
Heartbeat CPU  0 instructions:  149000000 cycles:   87315293 heartbeat IPC: 1.39215 cumulative IPC: 1.11435 (Simulation time: 0 hr 2 min 52 sec) 
Heartbeat CPU  0 instructions:  150000003 cycles:   88377658 heartbeat IPC: 0.94130 cumulative IPC: 1.11027 (Simulation time: 0 hr 2 min 53 sec) 
Heartbeat CPU  0 instructions:  151000002 cycles:   89528564 heartbeat IPC: 0.86888 cumulative IPC: 1.10425 (Simulation time: 0 hr 2 min 54 sec) 
Heartbeat CPU  0 instructions:  152000000 cycles:   90441617 heartbeat IPC: 1.09522 cumulative IPC: 1.10408 (Simulation time: 0 hr 2 min 56 sec) 
Heartbeat CPU  0 instructions:  153000001 cycles:   91211412 heartbeat IPC: 1.29905 cumulative IPC: 1.10721 (Simulation time: 0 hr 2 min 57 sec) 
Heartbeat CPU  0 instructions:  154000003 cycles:   91853082 heartbeat IPC: 1.55844 cumulative IPC: 1.11318 (Simulation time: 0 hr 2 min 58 sec) 
Heartbeat CPU  0 instructions:  155000003 cycles:   92710900 heartbeat IPC: 1.16575 cumulative IPC: 1.11409 (Simulation time: 0 hr 3 min 0 sec) 
Heartbeat CPU  0 instructions:  156000000 cycles:   93781432 heartbeat IPC: 0.93411 cumulative IPC: 1.11027 (Simulation time: 0 hr 3 min 1 sec) 
Heartbeat CPU  0 instructions:  157000003 cycles:   94832499 heartbeat IPC: 0.95142 cumulative IPC: 1.10703 (Simulation time: 0 hr 3 min 2 sec) 
Heartbeat CPU  0 instructions:  158000003 cycles:   95496951 heartbeat IPC: 1.50500 cumulative IPC: 1.11210 (Simulation time: 0 hr 3 min 3 sec) 
Heartbeat CPU  0 instructions:  159000000 cycles:   96134070 heartbeat IPC: 1.56956 cumulative IPC: 1.11762 (Simulation time: 0 hr 3 min 5 sec) 
Heartbeat CPU  0 instructions:  160000000 cycles:   97192468 heartbeat IPC: 0.94482 cumulative IPC: 1.11423 (Simulation time: 0 hr 3 min 6 sec) 
Heartbeat CPU  0 instructions:  161000000 cycles:   98291181 heartbeat IPC: 0.91016 cumulative IPC: 1.11015 (Simulation time: 0 hr 3 min 7 sec) 
Heartbeat CPU  0 instructions:  162000003 cycles:   99089323 heartbeat IPC: 1.25291 cumulative IPC: 1.11219 (Simulation time: 0 hr 3 min 9 sec) 
Heartbeat CPU  0 instructions:  163000002 cycles:   99729476 heartbeat IPC: 1.56212 cumulative IPC: 1.11730 (Simulation time: 0 hr 3 min 10 sec) 
Heartbeat CPU  0 instructions:  164000000 cycles:  100555694 heartbeat IPC: 1.21033 cumulative IPC: 1.11864 (Simulation time: 0 hr 3 min 11 sec) 
Heartbeat CPU  0 instructions:  165000000 cycles:  101615754 heartbeat IPC: 0.94334 cumulative IPC: 1.11545 (Simulation time: 0 hr 3 min 13 sec) 
Heartbeat CPU  0 instructions:  166000002 cycles:  102647616 heartbeat IPC: 0.96912 cumulative IPC: 1.11291 (Simulation time: 0 hr 3 min 14 sec) 
Heartbeat CPU  0 instructions:  167000001 cycles:  103308630 heartbeat IPC: 1.51283 cumulative IPC: 1.11732 (Simulation time: 0 hr 3 min 15 sec) 
Heartbeat CPU  0 instructions:  168000000 cycles:  103942425 heartbeat IPC: 1.57780 cumulative IPC: 1.12213 (Simulation time: 0 hr 3 min 17 sec) 
Heartbeat CPU  0 instructions:  169000000 cycles:  104991323 heartbeat IPC: 0.95338 cumulative IPC: 1.11926 (Simulation time: 0 hr 3 min 18 sec) 
Heartbeat CPU  0 instructions:  170000002 cycles:  106097972 heartbeat IPC: 0.90363 cumulative IPC: 1.11546 (Simulation time: 0 hr 3 min 19 sec) 
Heartbeat CPU  0 instructions:  171000003 cycles:  106915024 heartbeat IPC: 1.22391 cumulative IPC: 1.11685 (Simulation time: 0 hr 3 min 21 sec) 
Heartbeat CPU  0 instructions:  172000000 cycles:  107557262 heartbeat IPC: 1.55705 cumulative IPC: 1.12125 (Simulation time: 0 hr 3 min 22 sec) 
Heartbeat CPU  0 instructions:  173000000 cycles:  108381289 heartbeat IPC: 1.21355 cumulative IPC: 1.12242 (Simulation time: 0 hr 3 min 23 sec) 
Heartbeat CPU  0 instructions:  174000000 cycles:  109453170 heartbeat IPC: 0.93294 cumulative IPC: 1.11935 (Simulation time: 0 hr 3 min 25 sec) 
Heartbeat CPU  0 instructions:  175000002 cycles:  110502328 heartbeat IPC: 0.95315 cumulative IPC: 1.11676 (Simulation time: 0 hr 3 min 26 sec) 
Heartbeat CPU  0 instructions:  176000000 cycles:  111164814 heartbeat IPC: 1.50946 cumulative IPC: 1.12059 (Simulation time: 0 hr 3 min 27 sec) 
Heartbeat CPU  0 instructions:  177000003 cycles:  111798749 heartbeat IPC: 1.57745 cumulative IPC: 1.12482 (Simulation time: 0 hr 3 min 28 sec) 
Heartbeat CPU  0 instructions:  178000003 cycles:  112834432 heartbeat IPC: 0.96555 cumulative IPC: 1.12245 (Simulation time: 0 hr 3 min 30 sec) 
Heartbeat CPU  0 instructions:  179000002 cycles:  113943335 heartbeat IPC: 0.90179 cumulative IPC: 1.11898 (Simulation time: 0 hr 3 min 31 sec) 
Heartbeat CPU  0 instructions:  180000000 cycles:  114758092 heartbeat IPC: 1.22736 cumulative IPC: 1.12022 (Simulation time: 0 hr 3 min 32 sec) 
Heartbeat CPU  0 instructions:  181000002 cycles:  115400208 heartbeat IPC: 1.55735 cumulative IPC: 1.12411 (Simulation time: 0 hr 3 min 34 sec) 
Heartbeat CPU  0 instructions:  182000002 cycles:  116219587 heartbeat IPC: 1.22044 cumulative IPC: 1.12520 (Simulation time: 0 hr 3 min 35 sec) 
Heartbeat CPU  0 instructions:  183000002 cycles:  117267237 heartbeat IPC: 0.95452 cumulative IPC: 1.12278 (Simulation time: 0 hr 3 min 36 sec) 
Heartbeat CPU  0 instructions:  184000000 cycles:  118324136 heartbeat IPC: 0.94616 cumulative IPC: 1.12029 (Simulation time: 0 hr 3 min 38 sec) 
Heartbeat CPU  0 instructions:  185000003 cycles:  118990749 heartbeat IPC: 1.50013 cumulative IPC: 1.12364 (Simulation time: 0 hr 3 min 39 sec) 
Heartbeat CPU  0 instructions:  186000001 cycles:  119626898 heartbeat IPC: 1.57196 cumulative IPC: 1.12737 (Simulation time: 0 hr 3 min 40 sec) 
Heartbeat CPU  0 instructions:  187000002 cycles:  120665481 heartbeat IPC: 0.96285 cumulative IPC: 1.12516 (Simulation time: 0 hr 3 min 42 sec) 
Heartbeat CPU  0 instructions:  188000000 cycles:  121776282 heartbeat IPC: 0.90025 cumulative IPC: 1.12198 (Simulation time: 0 hr 3 min 43 sec) 
Heartbeat CPU  0 instructions:  189000001 cycles:  122605005 heartbeat IPC: 1.20668 cumulative IPC: 1.12286 (Simulation time: 0 hr 3 min 44 sec) 
Heartbeat CPU  0 instructions:  190000001 cycles:  123244017 heartbeat IPC: 1.56492 cumulative IPC: 1.12640 (Simulation time: 0 hr 3 min 46 sec) 
Heartbeat CPU  0 instructions:  191000003 cycles:  124059638 heartbeat IPC: 1.22606 cumulative IPC: 1.12741 (Simulation time: 0 hr 3 min 47 sec) 
Heartbeat CPU  0 instructions:  192000000 cycles:  125118928 heartbeat IPC: 0.94403 cumulative IPC: 1.12503 (Simulation time: 0 hr 3 min 49 sec) 
Heartbeat CPU  0 instructions:  193000002 cycles:  126178160 heartbeat IPC: 0.94408 cumulative IPC: 1.12272 (Simulation time: 0 hr 3 min 50 sec) 
Heartbeat CPU  0 instructions:  194000002 cycles:  126847896 heartbeat IPC: 1.49313 cumulative IPC: 1.12569 (Simulation time: 0 hr 3 min 51 sec) 
Heartbeat CPU  0 instructions:  195000001 cycles:  127481843 heartbeat IPC: 1.57742 cumulative IPC: 1.12909 (Simulation time: 0 hr 3 min 53 sec) 
Heartbeat CPU  0 instructions:  196000000 cycles:  128508610 heartbeat IPC: 0.97393 cumulative IPC: 1.12722 (Simulation time: 0 hr 3 min 54 sec) 
Heartbeat CPU  0 instructions:  197000002 cycles:  129630156 heartbeat IPC: 0.89163 cumulative IPC: 1.12416 (Simulation time: 0 hr 3 min 55 sec) 
Heartbeat CPU  0 instructions:  198000001 cycles:  130444436 heartbeat IPC: 1.22808 cumulative IPC: 1.12513 (Simulation time: 0 hr 3 min 57 sec) 
Heartbeat CPU  0 instructions:  199000001 cycles:  131082605 heartbeat IPC: 1.56698 cumulative IPC: 1.12834 (Simulation time: 0 hr 3 min 58 sec) 
Heartbeat CPU  0 instructions:  200000000 cycles:  131888459 heartbeat IPC: 1.24092 cumulative IPC: 1.12937 (Simulation time: 0 hr 3 min 59 sec) 
Finished CPU 0 instructions: 100000003 cycles: 88545008 cumulative IPC: 1.12937 (Simulation time: 0 hr 3 min 59 sec) 

ChampSim completed all CPUs

[ROI Statistics]
Core_0_instructions 100000003
Core_0_cycles 88545008
Core_0_IPC 1.12937

Core_0_branch_prediction_accuracy 97.76309
Core_0_branch_MPKI 1.93474
Core_0_average_ROB_occupancy_at_mispredict 144.27446

Core_0_L1D_total_access 15489239
Core_0_L1D_total_hit 14064546
Core_0_L1D_total_miss 1424693
Core_0_L1D_loads 14140446
Core_0_L1D_load_hit 12805350
Core_0_L1D_load_miss 1335096
Core_0_L1D_RFOs 1348793
Core_0_L1D_RFO_hit 1259196
Core_0_L1D_RFO_miss 89597
Core_0_L1D_prefetches 0
Core_0_L1D_prefetch_hit 0
Core_0_L1D_prefetch_miss 0
Core_0_L1D_writebacks 0
Core_0_L1D_writeback_hit 0
Core_0_L1D_writeback_miss 0
Core_0_L1D_prefetch_requested 0
Core_0_L1D_prefetch_issued 0
Core_0_L1D_prefetch_useful 0
Core_0_L1D_prefetch_useless 0
Core_0_L1D_prefetch_late 0
Core_0_L1D_average_miss_latency 39.82828

Core_0_L1I_total_access 24453397
Core_0_L1I_total_hit 24453096
Core_0_L1I_total_miss 301
Core_0_L1I_loads 24453397
Core_0_L1I_load_hit 24453096
Core_0_L1I_load_miss 301
Core_0_L1I_RFOs 0
Core_0_L1I_RFO_hit 0
Core_0_L1I_RFO_miss 0
Core_0_L1I_prefetches 0
Core_0_L1I_prefetch_hit 0
Core_0_L1I_prefetch_miss 0
Core_0_L1I_writebacks 0
Core_0_L1I_writeback_hit 0
Core_0_L1I_writeback_miss 0
Core_0_L1I_prefetch_requested 0
Core_0_L1I_prefetch_issued 0
Core_0_L1I_prefetch_useful 0
Core_0_L1I_prefetch_useless 0
Core_0_L1I_prefetch_late 0
Core_0_L1I_average_miss_latency 183.75748

Core_0_L2C_total_access 3744829
Core_0_L2C_total_hit 2468360
Core_0_L2C_total_miss 1276469
Core_0_L2C_loads 1335394
Core_0_L2C_load_hit 1025082
Core_0_L2C_load_miss 310312
Core_0_L2C_RFOs 89595
Core_0_L2C_RFO_hit 8366
Core_0_L2C_RFO_miss 81229
Core_0_L2C_prefetches 2209292
Core_0_L2C_prefetch_hit 1324626
Core_0_L2C_prefetch_miss 884666
Core_0_L2C_writebacks 110548
Core_0_L2C_writeback_hit 110286
Core_0_L2C_writeback_miss 262
Core_0_L2C_prefetch_requested 4960590
Core_0_L2C_prefetch_issued 4960590
Core_0_L2C_prefetch_useful 1668399
Core_0_L2C_prefetch_useless 126694
Core_0_L2C_prefetch_late 31585
Core_0_L2C_average_miss_latency 100.89938

Core_0_LLC_total_access 1915903
Core_0_LLC_total_hit 770172
Core_0_LLC_total_miss 1145731
Core_0_LLC_loads 278762
Core_0_LLC_load_hit 162317
Core_0_LLC_load_miss 116445
Core_0_LLC_RFOs 81229
Core_0_LLC_RFO_hit 49992
Core_0_LLC_RFO_miss 31237
Core_0_LLC_prefetches 1450726
Core_0_LLC_prefetch_hit 455753
Core_0_LLC_prefetch_miss 994973
Core_0_LLC_writebacks 105186
Core_0_LLC_writeback_hit 102110
Core_0_LLC_writeback_miss 3076
Core_0_LLC_prefetch_requested 2098022
Core_0_LLC_prefetch_issued 2064779
Core_0_LLC_prefetch_useful 255542
Core_0_LLC_prefetch_useless 1850406
Core_0_LLC_prefetch_late 15626
Core_0_LLC_average_miss_latency 141.36590

Core_0_major_page_fault 0
Core_0_minor_page_fault 3151

CPU 0 L2C PC-based stride prefetcher final stats
LLC Next Line Prefetcher Final Stats: none
Channel_0_RQ_row_buffer_hit 749721
Channel_0_RQ_row_buffer_miss 392718
Channel_0_WQ_row_buffer_hit 15791
Channel_0_WQ_row_buffer_miss 33146
Channel_0_WQ_full 0
Channel_0_dbus_congested 312658

avg_congested_cycle 8
