*************************************************
   ChampSim Multicore Out-of-Order Simulator
   Last compiled: Dec 22 2023 16:48:29
*************************************************

trace_0 ./test_trace/482.sphinx3-1100B.champsimtrace.xz
CPU 0 L1D next line prefetcher
Initialize SHIP state
warmup_instructions 100000000
simulation_instructions 100000000
champsim_seed 260

num_cpus 1
cpu_freq 4000
dram_io_freq 2400
page_size 4096
block_size 64
max_read_per_cycle 8
max_fill_per_cycle 1
dram_channels 1
dram_ranks 1
dram_banks 8
dram_rows 65536
dram_columns 128
dram_row_size 8
dram_size 4096
dram_pages 1048576

fetch_width 6
decode_width 6
exec_width 4
lq_width 2
sq_width 2
retire_width 4
scheduler_size 128
branch_mispredict_penalty 20
rob_size 256
lq_size 72
sq_size 56
num_instr_destinations_sparc 4
num_instr_destinations 2
num_instr_sources 4

itlb_set 16
itlb_way 8
itlb_rq_size 16
itlb_wq_size 16
itlb_pq_size 0
itlb_mshr_size 8
itlb_latency 1

dtlb_set 16
dtlb_way 4
dtlb_rq_size 16
dtlb_wq_size 16
dtlb_pq_size 0
dtlb_mshr_size 8
dtlb_latency 1

stlb_set 128
stlb_way 12
stlb_rq_size 32
stlb_wq_size 32
stlb_pq_size 0
stlb_mshr_size 16
stlb_latency 8

l1i_size 32
l1i_set 64
l1i_way 8
l1i_rq_size 64
l1i_wq_size 64
l1i_pq_size 8
l1i_mshr_size 8
l1i_latency 1

l1d_size 32
l1d_set 64
l1d_way 8
l1d_rq_size 64
l1d_wq_size 64
l1d_pq_size 8
l1d_mshr_size 16
l1d_latency 4

l2c_size 512
l2c_set 1024
l2c_way 8
l2c_rq_size 32
l2c_wq_size 32
l2c_pq_size 16
l2c_mshr_size 32
l2c_latency 10

llc_size 2048
llc_set 2048
llc_way 16
llc_rq_size 32
llc_wq_size 32
llc_pq_size 32
llc_mshr_size 64
llc_latency 20

dram_channel_width 8
dram_wq_size 64
dram_rq_size 64
tRP 15
tRCD 15
tCAS 12.5
dram_dbus_turn_around_time 30
dram_write_high_wm 56
dram_write_low_wm 48
min_dram_writes_per_switch 16
dram_mtps 2400
dram_dbus_return_time 13


Heartbeat CPU  0 instructions:    1000001 cycles:     367555 heartbeat IPC: 2.72068 cumulative IPC: 2.72068 (Simulation time: 0 hr 0 min 1 sec) 
Heartbeat CPU  0 instructions:    2000003 cycles:     794750 heartbeat IPC: 2.34086 cumulative IPC: 2.51652 (Simulation time: 0 hr 0 min 2 sec) 
Heartbeat CPU  0 instructions:    3000001 cycles:    1252326 heartbeat IPC: 2.18543 cumulative IPC: 2.39554 (Simulation time: 0 hr 0 min 3 sec) 
Heartbeat CPU  0 instructions:    4000000 cycles:    1734516 heartbeat IPC: 2.07387 cumulative IPC: 2.30612 (Simulation time: 0 hr 0 min 4 sec) 
Heartbeat CPU  0 instructions:    5000000 cycles:    2175766 heartbeat IPC: 2.26629 cumulative IPC: 2.29804 (Simulation time: 0 hr 0 min 5 sec) 
Heartbeat CPU  0 instructions:    6000001 cycles:    2542873 heartbeat IPC: 2.72400 cumulative IPC: 2.35954 (Simulation time: 0 hr 0 min 6 sec) 
Heartbeat CPU  0 instructions:    7000000 cycles:    2933687 heartbeat IPC: 2.55876 cumulative IPC: 2.38608 (Simulation time: 0 hr 0 min 7 sec) 
Heartbeat CPU  0 instructions:    8000000 cycles:    3392035 heartbeat IPC: 2.18175 cumulative IPC: 2.35847 (Simulation time: 0 hr 0 min 8 sec) 
Heartbeat CPU  0 instructions:    9000000 cycles:    3849693 heartbeat IPC: 2.18504 cumulative IPC: 2.33785 (Simulation time: 0 hr 0 min 9 sec) 
Heartbeat CPU  0 instructions:   10000000 cycles:    4338602 heartbeat IPC: 2.04537 cumulative IPC: 2.30489 (Simulation time: 0 hr 0 min 10 sec) 
Heartbeat CPU  0 instructions:   11000001 cycles:    4710078 heartbeat IPC: 2.69197 cumulative IPC: 2.33542 (Simulation time: 0 hr 0 min 11 sec) 
Heartbeat CPU  0 instructions:   12000000 cycles:    5077119 heartbeat IPC: 2.72449 cumulative IPC: 2.36355 (Simulation time: 0 hr 0 min 12 sec) 
Heartbeat CPU  0 instructions:   13000001 cycles:    5526071 heartbeat IPC: 2.22741 cumulative IPC: 2.35249 (Simulation time: 0 hr 0 min 13 sec) 
Heartbeat CPU  0 instructions:   14000000 cycles:    5983825 heartbeat IPC: 2.18458 cumulative IPC: 2.33964 (Simulation time: 0 hr 0 min 15 sec) 
Heartbeat CPU  0 instructions:   15000000 cycles:    6465380 heartbeat IPC: 2.07661 cumulative IPC: 2.32005 (Simulation time: 0 hr 0 min 15 sec) 
Heartbeat CPU  0 instructions:   16000000 cycles:    6874133 heartbeat IPC: 2.44647 cumulative IPC: 2.32757 (Simulation time: 0 hr 0 min 17 sec) 
Heartbeat CPU  0 instructions:   17000003 cycles:    7241299 heartbeat IPC: 2.72357 cumulative IPC: 2.34765 (Simulation time: 0 hr 0 min 18 sec) 
Heartbeat CPU  0 instructions:   18000003 cycles:    7652994 heartbeat IPC: 2.42898 cumulative IPC: 2.35202 (Simulation time: 0 hr 0 min 19 sec) 
Heartbeat CPU  0 instructions:   19000003 cycles:    8110650 heartbeat IPC: 2.18505 cumulative IPC: 2.34260 (Simulation time: 0 hr 0 min 20 sec) 
Heartbeat CPU  0 instructions:   20000000 cycles:    8578492 heartbeat IPC: 2.13747 cumulative IPC: 2.33141 (Simulation time: 0 hr 0 min 21 sec) 
Heartbeat CPU  0 instructions:   21000002 cycles:    9036040 heartbeat IPC: 2.18557 cumulative IPC: 2.32403 (Simulation time: 0 hr 0 min 22 sec) 
Heartbeat CPU  0 instructions:   22000003 cycles:    9403041 heartbeat IPC: 2.72479 cumulative IPC: 2.33967 (Simulation time: 0 hr 0 min 23 sec) 
Heartbeat CPU  0 instructions:   23000001 cycles:    9783380 heartbeat IPC: 2.62923 cumulative IPC: 2.35093 (Simulation time: 0 hr 0 min 24 sec) 
Heartbeat CPU  0 instructions:   24000000 cycles:   10238500 heartbeat IPC: 2.19722 cumulative IPC: 2.34409 (Simulation time: 0 hr 0 min 25 sec) 
Heartbeat CPU  0 instructions:   25000002 cycles:   10693638 heartbeat IPC: 2.19714 cumulative IPC: 2.33784 (Simulation time: 0 hr 0 min 26 sec) 
Heartbeat CPU  0 instructions:   26000002 cycles:   11171207 heartbeat IPC: 2.09394 cumulative IPC: 2.32741 (Simulation time: 0 hr 0 min 27 sec) 
Heartbeat CPU  0 instructions:   27000001 cycles:   11563387 heartbeat IPC: 2.54985 cumulative IPC: 2.33496 (Simulation time: 0 hr 0 min 28 sec) 
Heartbeat CPU  0 instructions:   28000000 cycles:   11930257 heartbeat IPC: 2.72576 cumulative IPC: 2.34697 (Simulation time: 0 hr 0 min 29 sec) 
Heartbeat CPU  0 instructions:   29000001 cycles:   12366278 heartbeat IPC: 2.29347 cumulative IPC: 2.34509 (Simulation time: 0 hr 0 min 30 sec) 
Heartbeat CPU  0 instructions:   30000003 cycles:   12819687 heartbeat IPC: 2.20552 cumulative IPC: 2.34015 (Simulation time: 0 hr 0 min 31 sec) 
Heartbeat CPU  0 instructions:   31000002 cycles:   13273446 heartbeat IPC: 2.20381 cumulative IPC: 2.33549 (Simulation time: 0 hr 0 min 32 sec) 
Heartbeat CPU  0 instructions:   32000000 cycles:   13755693 heartbeat IPC: 2.07362 cumulative IPC: 2.32631 (Simulation time: 0 hr 0 min 33 sec) 
Heartbeat CPU  0 instructions:   33000003 cycles:   14155794 heartbeat IPC: 2.49938 cumulative IPC: 2.33120 (Simulation time: 0 hr 0 min 34 sec) 
Heartbeat CPU  0 instructions:   34000003 cycles:   14522698 heartbeat IPC: 2.72551 cumulative IPC: 2.34116 (Simulation time: 0 hr 0 min 35 sec) 
Heartbeat CPU  0 instructions:   35000000 cycles:   14949530 heartbeat IPC: 2.34284 cumulative IPC: 2.34121 (Simulation time: 0 hr 0 min 36 sec) 
Heartbeat CPU  0 instructions:   36000000 cycles:   15403014 heartbeat IPC: 2.20515 cumulative IPC: 2.33720 (Simulation time: 0 hr 0 min 37 sec) 
Heartbeat CPU  0 instructions:   37000000 cycles:   15856662 heartbeat IPC: 2.20435 cumulative IPC: 2.33340 (Simulation time: 0 hr 0 min 38 sec) 
Heartbeat CPU  0 instructions:   38000003 cycles:   16343484 heartbeat IPC: 2.05415 cumulative IPC: 2.32509 (Simulation time: 0 hr 0 min 39 sec) 
Heartbeat CPU  0 instructions:   39000001 cycles:   16749699 heartbeat IPC: 2.46175 cumulative IPC: 2.32840 (Simulation time: 0 hr 0 min 41 sec) 
Heartbeat CPU  0 instructions:   40000000 cycles:   17116716 heartbeat IPC: 2.72467 cumulative IPC: 2.33690 (Simulation time: 0 hr 0 min 42 sec) 
Heartbeat CPU  0 instructions:   41000003 cycles:   17536624 heartbeat IPC: 2.38148 cumulative IPC: 2.33796 (Simulation time: 0 hr 0 min 43 sec) 
Heartbeat CPU  0 instructions:   42000000 cycles:   17994341 heartbeat IPC: 2.18475 cumulative IPC: 2.33407 (Simulation time: 0 hr 0 min 44 sec) 
Heartbeat CPU  0 instructions:   43000001 cycles:   18450416 heartbeat IPC: 2.19262 cumulative IPC: 2.33057 (Simulation time: 0 hr 0 min 45 sec) 
Heartbeat CPU  0 instructions:   44000000 cycles:   18939834 heartbeat IPC: 2.04324 cumulative IPC: 2.32315 (Simulation time: 0 hr 0 min 46 sec) 
Heartbeat CPU  0 instructions:   45000002 cycles:   19350682 heartbeat IPC: 2.43400 cumulative IPC: 2.32550 (Simulation time: 0 hr 0 min 47 sec) 
Heartbeat CPU  0 instructions:   46000000 cycles:   19717858 heartbeat IPC: 2.72348 cumulative IPC: 2.33291 (Simulation time: 0 hr 0 min 48 sec) 
Heartbeat CPU  0 instructions:   47000002 cycles:   20130692 heartbeat IPC: 2.42229 cumulative IPC: 2.33474 (Simulation time: 0 hr 0 min 49 sec) 
Heartbeat CPU  0 instructions:   48000000 cycles:   20590042 heartbeat IPC: 2.17698 cumulative IPC: 2.33122 (Simulation time: 0 hr 0 min 50 sec) 
Heartbeat CPU  0 instructions:   49000003 cycles:   21046307 heartbeat IPC: 2.19172 cumulative IPC: 2.32820 (Simulation time: 0 hr 0 min 51 sec) 
Heartbeat CPU  0 instructions:   50000003 cycles:   21556290 heartbeat IPC: 1.96085 cumulative IPC: 2.31951 (Simulation time: 0 hr 0 min 52 sec) 
Heartbeat CPU  0 instructions:   51000002 cycles:   22017542 heartbeat IPC: 2.16801 cumulative IPC: 2.31633 (Simulation time: 0 hr 0 min 53 sec) 
Heartbeat CPU  0 instructions:   52000000 cycles:   22389924 heartbeat IPC: 2.68541 cumulative IPC: 2.32247 (Simulation time: 0 hr 0 min 54 sec) 
Heartbeat CPU  0 instructions:   53000001 cycles:   22757048 heartbeat IPC: 2.72388 cumulative IPC: 2.32895 (Simulation time: 0 hr 0 min 55 sec) 
Heartbeat CPU  0 instructions:   54000001 cycles:   23206373 heartbeat IPC: 2.22556 cumulative IPC: 2.32695 (Simulation time: 0 hr 0 min 56 sec) 
Heartbeat CPU  0 instructions:   55000001 cycles:   23659674 heartbeat IPC: 2.20604 cumulative IPC: 2.32463 (Simulation time: 0 hr 0 min 57 sec) 
Heartbeat CPU  0 instructions:   56000000 cycles:   24116421 heartbeat IPC: 2.18939 cumulative IPC: 2.32207 (Simulation time: 0 hr 0 min 58 sec) 
Heartbeat CPU  0 instructions:   57000003 cycles:   24600732 heartbeat IPC: 2.06480 cumulative IPC: 2.31700 (Simulation time: 0 hr 0 min 59 sec) 
Heartbeat CPU  0 instructions:   58000001 cycles:   24993273 heartbeat IPC: 2.54750 cumulative IPC: 2.32062 (Simulation time: 0 hr 1 min 0 sec) 
Heartbeat CPU  0 instructions:   59000001 cycles:   25360204 heartbeat IPC: 2.72531 cumulative IPC: 2.32648 (Simulation time: 0 hr 1 min 1 sec) 
Heartbeat CPU  0 instructions:   60000000 cycles:   25799255 heartbeat IPC: 2.27764 cumulative IPC: 2.32565 (Simulation time: 0 hr 1 min 2 sec) 
Heartbeat CPU  0 instructions:   61000000 cycles:   26254950 heartbeat IPC: 2.19445 cumulative IPC: 2.32337 (Simulation time: 0 hr 1 min 3 sec) 
Heartbeat CPU  0 instructions:   62000000 cycles:   26712081 heartbeat IPC: 2.18756 cumulative IPC: 2.32105 (Simulation time: 0 hr 1 min 4 sec) 
Heartbeat CPU  0 instructions:   63000000 cycles:   27198465 heartbeat IPC: 2.05599 cumulative IPC: 2.31631 (Simulation time: 0 hr 1 min 5 sec) 
Heartbeat CPU  0 instructions:   64000000 cycles:   27599399 heartbeat IPC: 2.49418 cumulative IPC: 2.31889 (Simulation time: 0 hr 1 min 6 sec) 
Heartbeat CPU  0 instructions:   65000000 cycles:   27966458 heartbeat IPC: 2.72436 cumulative IPC: 2.32421 (Simulation time: 0 hr 1 min 8 sec) 
Heartbeat CPU  0 instructions:   66000001 cycles:   28391359 heartbeat IPC: 2.35349 cumulative IPC: 2.32465 (Simulation time: 0 hr 1 min 9 sec) 
Heartbeat CPU  0 instructions:   67000003 cycles:   28850801 heartbeat IPC: 2.17656 cumulative IPC: 2.32229 (Simulation time: 0 hr 1 min 10 sec) 
Heartbeat CPU  0 instructions:   68000000 cycles:   29304571 heartbeat IPC: 2.20375 cumulative IPC: 2.32046 (Simulation time: 0 hr 1 min 11 sec) 
Heartbeat CPU  0 instructions:   69000001 cycles:   29790859 heartbeat IPC: 2.05640 cumulative IPC: 2.31615 (Simulation time: 0 hr 1 min 12 sec) 
Heartbeat CPU  0 instructions:   70000001 cycles:   30198861 heartbeat IPC: 2.45097 cumulative IPC: 2.31797 (Simulation time: 0 hr 1 min 13 sec) 
Heartbeat CPU  0 instructions:   71000001 cycles:   30566059 heartbeat IPC: 2.72333 cumulative IPC: 2.32284 (Simulation time: 0 hr 1 min 14 sec) 
Heartbeat CPU  0 instructions:   72000000 cycles:   30981529 heartbeat IPC: 2.40691 cumulative IPC: 2.32397 (Simulation time: 0 hr 1 min 15 sec) 
Heartbeat CPU  0 instructions:   73000000 cycles:   31438104 heartbeat IPC: 2.19022 cumulative IPC: 2.32202 (Simulation time: 0 hr 1 min 16 sec) 
Heartbeat CPU  0 instructions:   74000002 cycles:   31893238 heartbeat IPC: 2.19716 cumulative IPC: 2.32024 (Simulation time: 0 hr 1 min 17 sec) 
Heartbeat CPU  0 instructions:   75000002 cycles:   32381052 heartbeat IPC: 2.04996 cumulative IPC: 2.31617 (Simulation time: 0 hr 1 min 18 sec) 
Heartbeat CPU  0 instructions:   76000000 cycles:   32798410 heartbeat IPC: 2.39602 cumulative IPC: 2.31719 (Simulation time: 0 hr 1 min 19 sec) 
Heartbeat CPU  0 instructions:   77000003 cycles:   33165604 heartbeat IPC: 2.72336 cumulative IPC: 2.32168 (Simulation time: 0 hr 1 min 20 sec) 
Heartbeat CPU  0 instructions:   78000002 cycles:   33573552 heartbeat IPC: 2.45129 cumulative IPC: 2.32326 (Simulation time: 0 hr 1 min 21 sec) 
Heartbeat CPU  0 instructions:   79000000 cycles:   34028546 heartbeat IPC: 2.19783 cumulative IPC: 2.32158 (Simulation time: 0 hr 1 min 22 sec) 
Heartbeat CPU  0 instructions:   80000000 cycles:   34485256 heartbeat IPC: 2.18957 cumulative IPC: 2.31983 (Simulation time: 0 hr 1 min 23 sec) 
Heartbeat CPU  0 instructions:   81000001 cycles:   34944005 heartbeat IPC: 2.17984 cumulative IPC: 2.31799 (Simulation time: 0 hr 1 min 24 sec) 
Heartbeat CPU  0 instructions:   82000001 cycles:   35429240 heartbeat IPC: 2.06086 cumulative IPC: 2.31447 (Simulation time: 0 hr 1 min 25 sec) 
Heartbeat CPU  0 instructions:   83000001 cycles:   35800243 heartbeat IPC: 2.69540 cumulative IPC: 2.31842 (Simulation time: 0 hr 1 min 26 sec) 
Heartbeat CPU  0 instructions:   84000000 cycles:   36168184 heartbeat IPC: 2.71782 cumulative IPC: 2.32248 (Simulation time: 0 hr 1 min 27 sec) 
Heartbeat CPU  0 instructions:   85000003 cycles:   36623580 heartbeat IPC: 2.19590 cumulative IPC: 2.32091 (Simulation time: 0 hr 1 min 28 sec) 
Heartbeat CPU  0 instructions:   86000001 cycles:   37078948 heartbeat IPC: 2.19602 cumulative IPC: 2.31938 (Simulation time: 0 hr 1 min 29 sec) 
Heartbeat CPU  0 instructions:   87000003 cycles:   37535877 heartbeat IPC: 2.18853 cumulative IPC: 2.31778 (Simulation time: 0 hr 1 min 30 sec) 
Heartbeat CPU  0 instructions:   88000000 cycles:   38024738 heartbeat IPC: 2.04557 cumulative IPC: 2.31428 (Simulation time: 0 hr 1 min 31 sec) 
Heartbeat CPU  0 instructions:   89000002 cycles:   38426793 heartbeat IPC: 2.48723 cumulative IPC: 2.31609 (Simulation time: 0 hr 1 min 33 sec) 
Heartbeat CPU  0 instructions:   90000002 cycles:   38793944 heartbeat IPC: 2.72368 cumulative IPC: 2.31995 (Simulation time: 0 hr 1 min 34 sec) 
Heartbeat CPU  0 instructions:   91000002 cycles:   39214608 heartbeat IPC: 2.37719 cumulative IPC: 2.32056 (Simulation time: 0 hr 1 min 35 sec) 
Heartbeat CPU  0 instructions:   92000000 cycles:   39667864 heartbeat IPC: 2.20625 cumulative IPC: 2.31926 (Simulation time: 0 hr 1 min 36 sec) 
Heartbeat CPU  0 instructions:   93000002 cycles:   40124104 heartbeat IPC: 2.19183 cumulative IPC: 2.31781 (Simulation time: 0 hr 1 min 37 sec) 
Heartbeat CPU  0 instructions:   94000001 cycles:   40611448 heartbeat IPC: 2.05194 cumulative IPC: 2.31462 (Simulation time: 0 hr 1 min 38 sec) 
Heartbeat CPU  0 instructions:   95000003 cycles:   40983093 heartbeat IPC: 2.69075 cumulative IPC: 2.31803 (Simulation time: 0 hr 1 min 39 sec) 
Heartbeat CPU  0 instructions:   96000000 cycles:   41350159 heartbeat IPC: 2.72430 cumulative IPC: 2.32164 (Simulation time: 0 hr 1 min 40 sec) 
Heartbeat CPU  0 instructions:   97000001 cycles:   41795879 heartbeat IPC: 2.24356 cumulative IPC: 2.32080 (Simulation time: 0 hr 1 min 41 sec) 
Heartbeat CPU  0 instructions:   98000002 cycles:   42252104 heartbeat IPC: 2.19190 cumulative IPC: 2.31941 (Simulation time: 0 hr 1 min 42 sec) 
Heartbeat CPU  0 instructions:   99000003 cycles:   42737623 heartbeat IPC: 2.05965 cumulative IPC: 2.31646 (Simulation time: 0 hr 1 min 43 sec) 
Heartbeat CPU  0 instructions:  100000000 cycles:   43281357 heartbeat IPC: 1.83913 cumulative IPC: 2.31046 (Simulation time: 0 hr 1 min 44 sec) 

Warmup complete CPU  0 instructions:  100000001 cycles:   43281358 (Simulation time: 0 hr 1 min 44 sec) 

Heartbeat CPU  0 instructions:  101000001 cycles:   44174827 heartbeat IPC: 1.11923 cumulative IPC: 1.11923 (Simulation time: 0 hr 1 min 45 sec) 
Heartbeat CPU  0 instructions:  102000002 cycles:   45022393 heartbeat IPC: 1.17985 cumulative IPC: 1.14874 (Simulation time: 0 hr 1 min 47 sec) 
Heartbeat CPU  0 instructions:  103000000 cycles:   45922347 heartbeat IPC: 1.11117 cumulative IPC: 1.13594 (Simulation time: 0 hr 1 min 48 sec) 
Heartbeat CPU  0 instructions:  104000000 cycles:   46972641 heartbeat IPC: 0.95211 cumulative IPC: 1.08363 (Simulation time: 0 hr 1 min 49 sec) 
Heartbeat CPU  0 instructions:  105000000 cycles:   47931782 heartbeat IPC: 1.04260 cumulative IPC: 1.07517 (Simulation time: 0 hr 1 min 50 sec) 
Heartbeat CPU  0 instructions:  106000003 cycles:   48763630 heartbeat IPC: 1.20215 cumulative IPC: 1.09444 (Simulation time: 0 hr 1 min 52 sec) 
Heartbeat CPU  0 instructions:  107000000 cycles:   49572370 heartbeat IPC: 1.23649 cumulative IPC: 1.11270 (Simulation time: 0 hr 1 min 53 sec) 
Heartbeat CPU  0 instructions:  108000000 cycles:   50587922 heartbeat IPC: 0.98469 cumulative IPC: 1.09491 (Simulation time: 0 hr 1 min 54 sec) 
Heartbeat CPU  0 instructions:  109000000 cycles:   51618764 heartbeat IPC: 0.97008 cumulative IPC: 1.07947 (Simulation time: 0 hr 1 min 55 sec) 
Heartbeat CPU  0 instructions:  110000002 cycles:   52451533 heartbeat IPC: 1.20082 cumulative IPC: 1.09049 (Simulation time: 0 hr 1 min 57 sec) 
Heartbeat CPU  0 instructions:  111000001 cycles:   53262136 heartbeat IPC: 1.23365 cumulative IPC: 1.10212 (Simulation time: 0 hr 1 min 58 sec) 
Heartbeat CPU  0 instructions:  112000000 cycles:   54159420 heartbeat IPC: 1.11447 cumulative IPC: 1.10314 (Simulation time: 0 hr 1 min 59 sec) 
Heartbeat CPU  0 instructions:  113000003 cycles:   55183725 heartbeat IPC: 0.97627 cumulative IPC: 1.09222 (Simulation time: 0 hr 2 min 0 sec) 
Heartbeat CPU  0 instructions:  114000001 cycles:   56124640 heartbeat IPC: 1.06279 cumulative IPC: 1.09006 (Simulation time: 0 hr 2 min 2 sec) 
Heartbeat CPU  0 instructions:  115000000 cycles:   57160549 heartbeat IPC: 0.96533 cumulative IPC: 1.08075 (Simulation time: 0 hr 2 min 3 sec) 
Heartbeat CPU  0 instructions:  116000000 cycles:   57970267 heartbeat IPC: 1.23500 cumulative IPC: 1.08926 (Simulation time: 0 hr 2 min 4 sec) 
Heartbeat CPU  0 instructions:  117000000 cycles:   59041338 heartbeat IPC: 0.93364 cumulative IPC: 1.07868 (Simulation time: 0 hr 2 min 6 sec) 
Heartbeat CPU  0 instructions:  118000003 cycles:   60098707 heartbeat IPC: 0.94575 cumulative IPC: 1.07032 (Simulation time: 0 hr 2 min 7 sec) 
Heartbeat CPU  0 instructions:  119000002 cycles:   61182949 heartbeat IPC: 0.92230 cumulative IPC: 1.06136 (Simulation time: 0 hr 2 min 8 sec) 
Heartbeat CPU  0 instructions:  120000000 cycles:   62374369 heartbeat IPC: 0.83933 cumulative IPC: 1.04750 (Simulation time: 0 hr 2 min 9 sec) 
Heartbeat CPU  0 instructions:  121000000 cycles:   63283784 heartbeat IPC: 1.09961 cumulative IPC: 1.04987 (Simulation time: 0 hr 2 min 11 sec) 
Heartbeat CPU  0 instructions:  122000001 cycles:   64100890 heartbeat IPC: 1.22383 cumulative IPC: 1.05670 (Simulation time: 0 hr 2 min 12 sec) 
Heartbeat CPU  0 instructions:  123000001 cycles:   65012123 heartbeat IPC: 1.09741 cumulative IPC: 1.05841 (Simulation time: 0 hr 2 min 13 sec) 
Heartbeat CPU  0 instructions:  124000000 cycles:   66123653 heartbeat IPC: 0.89966 cumulative IPC: 1.05068 (Simulation time: 0 hr 2 min 14 sec) 
Heartbeat CPU  0 instructions:  125000001 cycles:   67198405 heartbeat IPC: 0.93045 cumulative IPC: 1.04528 (Simulation time: 0 hr 2 min 16 sec) 
Heartbeat CPU  0 instructions:  126000003 cycles:   68298625 heartbeat IPC: 0.90891 cumulative IPC: 1.03928 (Simulation time: 0 hr 2 min 17 sec) 
Heartbeat CPU  0 instructions:  127000000 cycles:   69242789 heartbeat IPC: 1.05913 cumulative IPC: 1.04000 (Simulation time: 0 hr 2 min 18 sec) 
Heartbeat CPU  0 instructions:  128000000 cycles:   70098549 heartbeat IPC: 1.16855 cumulative IPC: 1.04411 (Simulation time: 0 hr 2 min 20 sec) 
Heartbeat CPU  0 instructions:  129000000 cycles:   70923655 heartbeat IPC: 1.21197 cumulative IPC: 1.04912 (Simulation time: 0 hr 2 min 21 sec) 
Heartbeat CPU  0 instructions:  130000000 cycles:   72042578 heartbeat IPC: 0.89372 cumulative IPC: 1.04307 (Simulation time: 0 hr 2 min 22 sec) 
Heartbeat CPU  0 instructions:  131000002 cycles:   73107184 heartbeat IPC: 0.93932 cumulative IPC: 1.03937 (Simulation time: 0 hr 2 min 23 sec) 
Heartbeat CPU  0 instructions:  132000000 cycles:   74200641 heartbeat IPC: 0.91453 cumulative IPC: 1.03495 (Simulation time: 0 hr 2 min 25 sec) 
Heartbeat CPU  0 instructions:  133000000 cycles:   75052519 heartbeat IPC: 1.17388 cumulative IPC: 1.03868 (Simulation time: 0 hr 2 min 26 sec) 
Heartbeat CPU  0 instructions:  134000002 cycles:   75876386 heartbeat IPC: 1.21379 cumulative IPC: 1.04310 (Simulation time: 0 hr 2 min 27 sec) 
Heartbeat CPU  0 instructions:  135000001 cycles:   76817497 heartbeat IPC: 1.06257 cumulative IPC: 1.04365 (Simulation time: 0 hr 2 min 28 sec) 
Heartbeat CPU  0 instructions:  136000000 cycles:   77878509 heartbeat IPC: 0.94250 cumulative IPC: 1.04055 (Simulation time: 0 hr 2 min 30 sec) 
Heartbeat CPU  0 instructions:  137000002 cycles:   78911534 heartbeat IPC: 0.96803 cumulative IPC: 1.03845 (Simulation time: 0 hr 2 min 31 sec) 
Heartbeat CPU  0 instructions:  138000002 cycles:   79749406 heartbeat IPC: 1.19350 cumulative IPC: 1.04201 (Simulation time: 0 hr 2 min 32 sec) 
Heartbeat CPU  0 instructions:  139000002 cycles:   80569113 heartbeat IPC: 1.21995 cumulative IPC: 1.04592 (Simulation time: 0 hr 2 min 33 sec) 
Heartbeat CPU  0 instructions:  140000000 cycles:   81540493 heartbeat IPC: 1.02946 cumulative IPC: 1.04550 (Simulation time: 0 hr 2 min 35 sec) 
Heartbeat CPU  0 instructions:  141000000 cycles:   82585226 heartbeat IPC: 0.95718 cumulative IPC: 1.04315 (Simulation time: 0 hr 2 min 36 sec) 
Heartbeat CPU  0 instructions:  142000001 cycles:   83567270 heartbeat IPC: 1.01829 cumulative IPC: 1.04255 (Simulation time: 0 hr 2 min 37 sec) 
Heartbeat CPU  0 instructions:  143000003 cycles:   84385979 heartbeat IPC: 1.22144 cumulative IPC: 1.04611 (Simulation time: 0 hr 2 min 38 sec) 
Heartbeat CPU  0 instructions:  144000000 cycles:   85193456 heartbeat IPC: 1.23842 cumulative IPC: 1.04982 (Simulation time: 0 hr 2 min 40 sec) 
Heartbeat CPU  0 instructions:  145000002 cycles:   86228837 heartbeat IPC: 0.96583 cumulative IPC: 1.04779 (Simulation time: 0 hr 2 min 41 sec) 
Heartbeat CPU  0 instructions:  146000002 cycles:   87285540 heartbeat IPC: 0.94634 cumulative IPC: 1.04536 (Simulation time: 0 hr 2 min 42 sec) 
Heartbeat CPU  0 instructions:  147000002 cycles:   88165642 heartbeat IPC: 1.13623 cumulative IPC: 1.04714 (Simulation time: 0 hr 2 min 43 sec) 
Heartbeat CPU  0 instructions:  148000000 cycles:   88979885 heartbeat IPC: 1.22813 cumulative IPC: 1.05036 (Simulation time: 0 hr 2 min 45 sec) 
Heartbeat CPU  0 instructions:  149000000 cycles:   89835754 heartbeat IPC: 1.16840 cumulative IPC: 1.05253 (Simulation time: 0 hr 2 min 46 sec) 
Heartbeat CPU  0 instructions:  150000003 cycles:   90895112 heartbeat IPC: 0.94397 cumulative IPC: 1.05012 (Simulation time: 0 hr 2 min 47 sec) 
Heartbeat CPU  0 instructions:  151000002 cycles:   91976562 heartbeat IPC: 0.92468 cumulative IPC: 1.04733 (Simulation time: 0 hr 2 min 48 sec) 
Heartbeat CPU  0 instructions:  152000000 cycles:   92860006 heartbeat IPC: 1.13193 cumulative IPC: 1.04884 (Simulation time: 0 hr 2 min 50 sec) 
Heartbeat CPU  0 instructions:  153000001 cycles:   93706946 heartbeat IPC: 1.18072 cumulative IPC: 1.05105 (Simulation time: 0 hr 2 min 51 sec) 
Heartbeat CPU  0 instructions:  154000003 cycles:   94525073 heartbeat IPC: 1.22231 cumulative IPC: 1.05379 (Simulation time: 0 hr 2 min 52 sec) 
Heartbeat CPU  0 instructions:  155000003 cycles:   95462375 heartbeat IPC: 1.06689 cumulative IPC: 1.05402 (Simulation time: 0 hr 2 min 53 sec) 
Heartbeat CPU  0 instructions:  156000000 cycles:   96500929 heartbeat IPC: 0.96287 cumulative IPC: 1.05224 (Simulation time: 0 hr 2 min 55 sec) 
Heartbeat CPU  0 instructions:  157000003 cycles:   97440668 heartbeat IPC: 1.06413 cumulative IPC: 1.05245 (Simulation time: 0 hr 2 min 56 sec) 
Heartbeat CPU  0 instructions:  158000002 cycles:   98258115 heartbeat IPC: 1.22332 cumulative IPC: 1.05499 (Simulation time: 0 hr 2 min 57 sec) 
Heartbeat CPU  0 instructions:  159000001 cycles:   99053137 heartbeat IPC: 1.25783 cumulative IPC: 1.05788 (Simulation time: 0 hr 2 min 58 sec) 
Heartbeat CPU  0 instructions:  160000000 cycles:  100122486 heartbeat IPC: 0.93515 cumulative IPC: 1.05557 (Simulation time: 0 hr 3 min 0 sec) 
Heartbeat CPU  0 instructions:  161000000 cycles:  101153475 heartbeat IPC: 0.96994 cumulative IPC: 1.05405 (Simulation time: 0 hr 3 min 1 sec) 
Heartbeat CPU  0 instructions:  162000003 cycles:  101973151 heartbeat IPC: 1.22000 cumulative IPC: 1.05637 (Simulation time: 0 hr 3 min 2 sec) 
Heartbeat CPU  0 instructions:  163000003 cycles:  102789247 heartbeat IPC: 1.22535 cumulative IPC: 1.05868 (Simulation time: 0 hr 3 min 3 sec) 
Heartbeat CPU  0 instructions:  164000000 cycles:  103714792 heartbeat IPC: 1.08044 cumulative IPC: 1.05902 (Simulation time: 0 hr 3 min 5 sec) 
Heartbeat CPU  0 instructions:  165000000 cycles:  104750371 heartbeat IPC: 0.96564 cumulative IPC: 1.05744 (Simulation time: 0 hr 3 min 6 sec) 
Heartbeat CPU  0 instructions:  166000002 cycles:  105683714 heartbeat IPC: 1.07142 cumulative IPC: 1.05765 (Simulation time: 0 hr 3 min 7 sec) 
Heartbeat CPU  0 instructions:  167000001 cycles:  106496015 heartbeat IPC: 1.23107 cumulative IPC: 1.05988 (Simulation time: 0 hr 3 min 8 sec) 
Heartbeat CPU  0 instructions:  168000000 cycles:  107288699 heartbeat IPC: 1.26154 cumulative IPC: 1.06238 (Simulation time: 0 hr 3 min 10 sec) 
Heartbeat CPU  0 instructions:  169000000 cycles:  108355688 heartbeat IPC: 0.93722 cumulative IPC: 1.06033 (Simulation time: 0 hr 3 min 11 sec) 
Heartbeat CPU  0 instructions:  170000000 cycles:  109391288 heartbeat IPC: 0.96562 cumulative IPC: 1.05884 (Simulation time: 0 hr 3 min 12 sec) 
Heartbeat CPU  0 instructions:  171000003 cycles:  110211559 heartbeat IPC: 1.21911 cumulative IPC: 1.06081 (Simulation time: 0 hr 3 min 13 sec) 
Heartbeat CPU  0 instructions:  172000000 cycles:  111028281 heartbeat IPC: 1.22440 cumulative IPC: 1.06278 (Simulation time: 0 hr 3 min 15 sec) 
Heartbeat CPU  0 instructions:  173000000 cycles:  111950430 heartbeat IPC: 1.08442 cumulative IPC: 1.06307 (Simulation time: 0 hr 3 min 16 sec) 
Heartbeat CPU  0 instructions:  174000000 cycles:  112991613 heartbeat IPC: 0.96045 cumulative IPC: 1.06154 (Simulation time: 0 hr 3 min 17 sec) 
Heartbeat CPU  0 instructions:  175000002 cycles:  113933809 heartbeat IPC: 1.06135 cumulative IPC: 1.06153 (Simulation time: 0 hr 3 min 18 sec) 
Heartbeat CPU  0 instructions:  176000000 cycles:  114739953 heartbeat IPC: 1.24047 cumulative IPC: 1.06355 (Simulation time: 0 hr 3 min 20 sec) 
Heartbeat CPU  0 instructions:  177000003 cycles:  115542656 heartbeat IPC: 1.24579 cumulative IPC: 1.06558 (Simulation time: 0 hr 3 min 21 sec) 
Heartbeat CPU  0 instructions:  178000003 cycles:  116600749 heartbeat IPC: 0.94510 cumulative IPC: 1.06384 (Simulation time: 0 hr 3 min 22 sec) 
Heartbeat CPU  0 instructions:  179000000 cycles:  117638773 heartbeat IPC: 0.96337 cumulative IPC: 1.06244 (Simulation time: 0 hr 3 min 23 sec) 
Heartbeat CPU  0 instructions:  180000000 cycles:  118452651 heartbeat IPC: 1.22869 cumulative IPC: 1.06424 (Simulation time: 0 hr 3 min 25 sec) 
Heartbeat CPU  0 instructions:  181000002 cycles:  119268277 heartbeat IPC: 1.22605 cumulative IPC: 1.06597 (Simulation time: 0 hr 3 min 26 sec) 
Heartbeat CPU  0 instructions:  182000002 cycles:  120185691 heartbeat IPC: 1.09002 cumulative IPC: 1.06626 (Simulation time: 0 hr 3 min 27 sec) 
Heartbeat CPU  0 instructions:  183000002 cycles:  121205844 heartbeat IPC: 0.98025 cumulative IPC: 1.06513 (Simulation time: 0 hr 3 min 28 sec) 
Heartbeat CPU  0 instructions:  184000000 cycles:  122156193 heartbeat IPC: 1.05224 cumulative IPC: 1.06498 (Simulation time: 0 hr 3 min 30 sec) 
Heartbeat CPU  0 instructions:  185000003 cycles:  122957501 heartbeat IPC: 1.24796 cumulative IPC: 1.06682 (Simulation time: 0 hr 3 min 31 sec) 
Heartbeat CPU  0 instructions:  186000002 cycles:  123764758 heartbeat IPC: 1.23876 cumulative IPC: 1.06854 (Simulation time: 0 hr 3 min 32 sec) 
Heartbeat CPU  0 instructions:  187000002 cycles:  124826384 heartbeat IPC: 0.94195 cumulative IPC: 1.06690 (Simulation time: 0 hr 3 min 34 sec) 
Heartbeat CPU  0 instructions:  188000000 cycles:  125866176 heartbeat IPC: 0.96173 cumulative IPC: 1.06557 (Simulation time: 0 hr 3 min 35 sec) 
Heartbeat CPU  0 instructions:  189000003 cycles:  126694594 heartbeat IPC: 1.20712 cumulative IPC: 1.06698 (Simulation time: 0 hr 3 min 36 sec) 
Heartbeat CPU  0 instructions:  190000001 cycles:  127514214 heartbeat IPC: 1.22008 cumulative IPC: 1.06847 (Simulation time: 0 hr 3 min 37 sec) 
Heartbeat CPU  0 instructions:  191000001 cycles:  128433384 heartbeat IPC: 1.08794 cumulative IPC: 1.06868 (Simulation time: 0 hr 3 min 39 sec) 
Heartbeat CPU  0 instructions:  192000000 cycles:  129458724 heartbeat IPC: 0.97529 cumulative IPC: 1.06757 (Simulation time: 0 hr 3 min 40 sec) 
Heartbeat CPU  0 instructions:  193000002 cycles:  130419197 heartbeat IPC: 1.04116 cumulative IPC: 1.06727 (Simulation time: 0 hr 3 min 41 sec) 
Heartbeat CPU  0 instructions:  194000002 cycles:  131226206 heartbeat IPC: 1.23914 cumulative IPC: 1.06885 (Simulation time: 0 hr 3 min 42 sec) 
Heartbeat CPU  0 instructions:  195000001 cycles:  132034020 heartbeat IPC: 1.23791 cumulative IPC: 1.07039 (Simulation time: 0 hr 3 min 44 sec) 
Heartbeat CPU  0 instructions:  196000000 cycles:  133085442 heartbeat IPC: 0.95109 cumulative IPC: 1.06899 (Simulation time: 0 hr 3 min 45 sec) 
Heartbeat CPU  0 instructions:  197000002 cycles:  134141546 heartbeat IPC: 0.94688 cumulative IPC: 1.06757 (Simulation time: 0 hr 3 min 46 sec) 
Heartbeat CPU  0 instructions:  198000002 cycles:  134955978 heartbeat IPC: 1.22785 cumulative IPC: 1.06900 (Simulation time: 0 hr 3 min 47 sec) 
Heartbeat CPU  0 instructions:  199000001 cycles:  135772890 heartbeat IPC: 1.22412 cumulative IPC: 1.07037 (Simulation time: 0 hr 3 min 49 sec) 
Heartbeat CPU  0 instructions:  200000000 cycles:  136682740 heartbeat IPC: 1.09908 cumulative IPC: 1.07065 (Simulation time: 0 hr 3 min 50 sec) 
Finished CPU 0 instructions: 100000003 cycles: 93401390 cumulative IPC: 1.07065 (Simulation time: 0 hr 3 min 50 sec) 

ChampSim completed all CPUs

[ROI Statistics]
Core_0_instructions 100000003
Core_0_cycles 93401390
Core_0_IPC 1.07065

Core_0_branch_prediction_accuracy 97.76309
Core_0_branch_MPKI 1.93474
Core_0_average_ROB_occupancy_at_mispredict 144.57641

Core_0_L1D_total_access 26356972
Core_0_L1D_total_hit 24695487
Core_0_L1D_total_miss 1661485
Core_0_L1D_loads 14293077
Core_0_L1D_load_hit 13638863
Core_0_L1D_load_miss 654214
Core_0_L1D_RFOs 1377965
Core_0_L1D_RFO_hit 1289385
Core_0_L1D_RFO_miss 88580
Core_0_L1D_prefetches 10685930
Core_0_L1D_prefetch_hit 9767239
Core_0_L1D_prefetch_miss 918691
Core_0_L1D_writebacks 0
Core_0_L1D_writeback_hit 0
Core_0_L1D_writeback_miss 0
Core_0_L1D_prefetch_requested 39210360
Core_0_L1D_prefetch_issued 38787500
Core_0_L1D_prefetch_useful 1720748
Core_0_L1D_prefetch_useless 523103
Core_0_L1D_prefetch_late 340318
Core_0_L1D_average_miss_latency 17980712.50877

Core_0_L1I_total_access 24344002
Core_0_L1I_total_hit 24343701
Core_0_L1I_total_miss 301
Core_0_L1I_loads 24344002
Core_0_L1I_load_hit 24343701
Core_0_L1I_load_miss 301
Core_0_L1I_RFOs 0
Core_0_L1I_RFO_hit 0
Core_0_L1I_RFO_miss 0
Core_0_L1I_prefetches 0
Core_0_L1I_prefetch_hit 0
Core_0_L1I_prefetch_miss 0
Core_0_L1I_writebacks 0
Core_0_L1I_writeback_hit 0
Core_0_L1I_writeback_miss 0
Core_0_L1I_prefetch_requested 0
Core_0_L1I_prefetch_issued 0
Core_0_L1I_prefetch_useful 0
Core_0_L1I_prefetch_useless 0
Core_0_L1I_prefetch_late 0
Core_0_L1I_average_miss_latency 205.45515

Core_0_L2C_total_access 1773705
Core_0_L2C_total_hit 473230
Core_0_L2C_total_miss 1300475
Core_0_L2C_loads 323160
Core_0_L2C_load_hit 156582
Core_0_L2C_load_miss 166578
Core_0_L2C_RFOs 88556
Core_0_L2C_RFO_hit 8749
Core_0_L2C_RFO_miss 79807
Core_0_L2C_prefetches 1250059
Core_0_L2C_prefetch_hit 196235
Core_0_L2C_prefetch_miss 1053824
Core_0_L2C_writebacks 111930
Core_0_L2C_writeback_hit 111664
Core_0_L2C_writeback_miss 266
Core_0_L2C_prefetch_requested 0
Core_0_L2C_prefetch_issued 0
Core_0_L2C_prefetch_useful 31821
Core_0_L2C_prefetch_useless 2105135
Core_0_L2C_prefetch_late 0
Core_0_L2C_average_miss_latency 110.76999

Core_0_LLC_total_access 1405572
Core_0_LLC_total_hit 535166
Core_0_LLC_total_miss 870406
Core_0_LLC_loads 166578
Core_0_LLC_load_hit 97966
Core_0_LLC_load_miss 68612
Core_0_LLC_RFOs 79807
Core_0_LLC_RFO_hit 78867
Core_0_LLC_RFO_miss 940
Core_0_LLC_prefetches 1053824
Core_0_LLC_prefetch_hit 261422
Core_0_LLC_prefetch_miss 792402
Core_0_LLC_writebacks 105363
Core_0_LLC_writeback_hit 96911
Core_0_LLC_writeback_miss 8452
Core_0_LLC_prefetch_requested 0
Core_0_LLC_prefetch_issued 0
Core_0_LLC_prefetch_useful 2825
Core_0_LLC_prefetch_useless 1497271
Core_0_LLC_prefetch_late 0
Core_0_LLC_average_miss_latency 119.22220

Core_0_major_page_fault 0
Core_0_minor_page_fault 3151

CPU 0 L1D next line prefetcher final stats
Channel_0_RQ_row_buffer_hit 665013
Channel_0_RQ_row_buffer_miss 196941
Channel_0_WQ_row_buffer_hit 3064
Channel_0_WQ_row_buffer_miss 3842
Channel_0_WQ_full 0
Channel_0_dbus_congested 124051

avg_congested_cycle 8
