*************************************************
   ChampSim Multicore Out-of-Order Simulator
   Last compiled: Dec 22 2023 16:52:29
*************************************************

trace_0 ./test_trace/482.sphinx3-1100B.champsimtrace.xz
CPU 0 L1D next line prefetcher
Initialize SRRIP state
warmup_instructions 100000000
simulation_instructions 100000000
champsim_seed 260

num_cpus 1
cpu_freq 4000
dram_io_freq 2400
page_size 4096
block_size 64
max_read_per_cycle 8
max_fill_per_cycle 1
dram_channels 1
dram_ranks 1
dram_banks 8
dram_rows 65536
dram_columns 128
dram_row_size 8
dram_size 4096
dram_pages 1048576

fetch_width 6
decode_width 6
exec_width 4
lq_width 2
sq_width 2
retire_width 4
scheduler_size 128
branch_mispredict_penalty 20
rob_size 256
lq_size 72
sq_size 56
num_instr_destinations_sparc 4
num_instr_destinations 2
num_instr_sources 4

itlb_set 16
itlb_way 8
itlb_rq_size 16
itlb_wq_size 16
itlb_pq_size 0
itlb_mshr_size 8
itlb_latency 1

dtlb_set 16
dtlb_way 4
dtlb_rq_size 16
dtlb_wq_size 16
dtlb_pq_size 0
dtlb_mshr_size 8
dtlb_latency 1

stlb_set 128
stlb_way 12
stlb_rq_size 32
stlb_wq_size 32
stlb_pq_size 0
stlb_mshr_size 16
stlb_latency 8

l1i_size 32
l1i_set 64
l1i_way 8
l1i_rq_size 64
l1i_wq_size 64
l1i_pq_size 8
l1i_mshr_size 8
l1i_latency 1

l1d_size 32
l1d_set 64
l1d_way 8
l1d_rq_size 64
l1d_wq_size 64
l1d_pq_size 8
l1d_mshr_size 16
l1d_latency 4

l2c_size 512
l2c_set 1024
l2c_way 8
l2c_rq_size 32
l2c_wq_size 32
l2c_pq_size 16
l2c_mshr_size 32
l2c_latency 10

llc_size 2048
llc_set 2048
llc_way 16
llc_rq_size 32
llc_wq_size 32
llc_pq_size 32
llc_mshr_size 64
llc_latency 20

dram_channel_width 8
dram_wq_size 64
dram_rq_size 64
tRP 15
tRCD 15
tCAS 12.5
dram_dbus_turn_around_time 30
dram_write_high_wm 56
dram_write_low_wm 48
min_dram_writes_per_switch 16
dram_mtps 2400
dram_dbus_return_time 13


Heartbeat CPU  0 instructions:    1000001 cycles:     367556 heartbeat IPC: 2.72068 cumulative IPC: 2.72068 (Simulation time: 0 hr 0 min 1 sec) 
Heartbeat CPU  0 instructions:    2000003 cycles:     794759 heartbeat IPC: 2.34081 cumulative IPC: 2.51649 (Simulation time: 0 hr 0 min 2 sec) 
Heartbeat CPU  0 instructions:    3000001 cycles:    1252326 heartbeat IPC: 2.18547 cumulative IPC: 2.39554 (Simulation time: 0 hr 0 min 3 sec) 
Heartbeat CPU  0 instructions:    4000000 cycles:    1734489 heartbeat IPC: 2.07399 cumulative IPC: 2.30615 (Simulation time: 0 hr 0 min 4 sec) 
Heartbeat CPU  0 instructions:    5000000 cycles:    2175747 heartbeat IPC: 2.26625 cumulative IPC: 2.29806 (Simulation time: 0 hr 0 min 5 sec) 
Heartbeat CPU  0 instructions:    6000001 cycles:    2542859 heartbeat IPC: 2.72397 cumulative IPC: 2.35955 (Simulation time: 0 hr 0 min 7 sec) 
Heartbeat CPU  0 instructions:    7000000 cycles:    2933679 heartbeat IPC: 2.55872 cumulative IPC: 2.38608 (Simulation time: 0 hr 0 min 8 sec) 
Heartbeat CPU  0 instructions:    8000000 cycles:    3392268 heartbeat IPC: 2.18060 cumulative IPC: 2.35830 (Simulation time: 0 hr 0 min 9 sec) 
Heartbeat CPU  0 instructions:    9000000 cycles:    3850218 heartbeat IPC: 2.18364 cumulative IPC: 2.33753 (Simulation time: 0 hr 0 min 10 sec) 
Heartbeat CPU  0 instructions:   10000000 cycles:    4339390 heartbeat IPC: 2.04427 cumulative IPC: 2.30447 (Simulation time: 0 hr 0 min 11 sec) 
Heartbeat CPU  0 instructions:   11000001 cycles:    4710865 heartbeat IPC: 2.69197 cumulative IPC: 2.33503 (Simulation time: 0 hr 0 min 12 sec) 
Heartbeat CPU  0 instructions:   12000000 cycles:    5077909 heartbeat IPC: 2.72447 cumulative IPC: 2.36318 (Simulation time: 0 hr 0 min 13 sec) 
Heartbeat CPU  0 instructions:   13000001 cycles:    5526978 heartbeat IPC: 2.22683 cumulative IPC: 2.35210 (Simulation time: 0 hr 0 min 14 sec) 
Heartbeat CPU  0 instructions:   14000000 cycles:    5984981 heartbeat IPC: 2.18339 cumulative IPC: 2.33919 (Simulation time: 0 hr 0 min 15 sec) 
Heartbeat CPU  0 instructions:   15000000 cycles:    6466687 heartbeat IPC: 2.07596 cumulative IPC: 2.31958 (Simulation time: 0 hr 0 min 16 sec) 
Heartbeat CPU  0 instructions:   16000000 cycles:    6875508 heartbeat IPC: 2.44606 cumulative IPC: 2.32710 (Simulation time: 0 hr 0 min 17 sec) 
Heartbeat CPU  0 instructions:   17000003 cycles:    7242680 heartbeat IPC: 2.72353 cumulative IPC: 2.34720 (Simulation time: 0 hr 0 min 18 sec) 
Heartbeat CPU  0 instructions:   18000003 cycles:    7654417 heartbeat IPC: 2.42873 cumulative IPC: 2.35158 (Simulation time: 0 hr 0 min 19 sec) 
Heartbeat CPU  0 instructions:   19000003 cycles:    8112327 heartbeat IPC: 2.18384 cumulative IPC: 2.34211 (Simulation time: 0 hr 0 min 20 sec) 
Heartbeat CPU  0 instructions:   20000000 cycles:    8580479 heartbeat IPC: 2.13605 cumulative IPC: 2.33087 (Simulation time: 0 hr 0 min 21 sec) 
Heartbeat CPU  0 instructions:   21000002 cycles:    9038116 heartbeat IPC: 2.18514 cumulative IPC: 2.32349 (Simulation time: 0 hr 0 min 22 sec) 
Heartbeat CPU  0 instructions:   22000003 cycles:    9405117 heartbeat IPC: 2.72479 cumulative IPC: 2.33915 (Simulation time: 0 hr 0 min 23 sec) 
Heartbeat CPU  0 instructions:   23000001 cycles:    9785479 heartbeat IPC: 2.62907 cumulative IPC: 2.35042 (Simulation time: 0 hr 0 min 24 sec) 
Heartbeat CPU  0 instructions:   24000000 cycles:   10240743 heartbeat IPC: 2.19653 cumulative IPC: 2.34358 (Simulation time: 0 hr 0 min 25 sec) 
Heartbeat CPU  0 instructions:   25000002 cycles:   10696167 heartbeat IPC: 2.19576 cumulative IPC: 2.33729 (Simulation time: 0 hr 0 min 26 sec) 
Heartbeat CPU  0 instructions:   26000002 cycles:   11174064 heartbeat IPC: 2.09250 cumulative IPC: 2.32682 (Simulation time: 0 hr 0 min 27 sec) 
Heartbeat CPU  0 instructions:   27000001 cycles:   11566260 heartbeat IPC: 2.54974 cumulative IPC: 2.33438 (Simulation time: 0 hr 0 min 29 sec) 
Heartbeat CPU  0 instructions:   28000000 cycles:   11933137 heartbeat IPC: 2.72571 cumulative IPC: 2.34641 (Simulation time: 0 hr 0 min 30 sec) 
Heartbeat CPU  0 instructions:   29000001 cycles:   12369206 heartbeat IPC: 2.29322 cumulative IPC: 2.34453 (Simulation time: 0 hr 0 min 31 sec) 
Heartbeat CPU  0 instructions:   30000003 cycles:   12822781 heartbeat IPC: 2.20471 cumulative IPC: 2.33959 (Simulation time: 0 hr 0 min 32 sec) 
Heartbeat CPU  0 instructions:   31000002 cycles:   13276732 heartbeat IPC: 2.20288 cumulative IPC: 2.33491 (Simulation time: 0 hr 0 min 33 sec) 
Heartbeat CPU  0 instructions:   32000000 cycles:   13759135 heartbeat IPC: 2.07295 cumulative IPC: 2.32573 (Simulation time: 0 hr 0 min 34 sec) 
Heartbeat CPU  0 instructions:   33000003 cycles:   14159304 heartbeat IPC: 2.49895 cumulative IPC: 2.33062 (Simulation time: 0 hr 0 min 35 sec) 
Heartbeat CPU  0 instructions:   34000003 cycles:   14526206 heartbeat IPC: 2.72552 cumulative IPC: 2.34060 (Simulation time: 0 hr 0 min 36 sec) 
Heartbeat CPU  0 instructions:   35000000 cycles:   14953069 heartbeat IPC: 2.34266 cumulative IPC: 2.34066 (Simulation time: 0 hr 0 min 37 sec) 
Heartbeat CPU  0 instructions:   36000000 cycles:   15406721 heartbeat IPC: 2.20433 cumulative IPC: 2.33664 (Simulation time: 0 hr 0 min 38 sec) 
Heartbeat CPU  0 instructions:   37000000 cycles:   15860582 heartbeat IPC: 2.20332 cumulative IPC: 2.33283 (Simulation time: 0 hr 0 min 39 sec) 
Heartbeat CPU  0 instructions:   38000003 cycles:   16347672 heartbeat IPC: 2.05301 cumulative IPC: 2.32449 (Simulation time: 0 hr 0 min 40 sec) 
Heartbeat CPU  0 instructions:   39000001 cycles:   16753918 heartbeat IPC: 2.46156 cumulative IPC: 2.32781 (Simulation time: 0 hr 0 min 41 sec) 
Heartbeat CPU  0 instructions:   40000000 cycles:   17120935 heartbeat IPC: 2.72467 cumulative IPC: 2.33632 (Simulation time: 0 hr 0 min 42 sec) 
Heartbeat CPU  0 instructions:   41000003 cycles:   17540861 heartbeat IPC: 2.38138 cumulative IPC: 2.33740 (Simulation time: 0 hr 0 min 43 sec) 
Heartbeat CPU  0 instructions:   42000000 cycles:   17998727 heartbeat IPC: 2.18404 cumulative IPC: 2.33350 (Simulation time: 0 hr 0 min 44 sec) 
Heartbeat CPU  0 instructions:   43000001 cycles:   18454962 heartbeat IPC: 2.19186 cumulative IPC: 2.33000 (Simulation time: 0 hr 0 min 45 sec) 
Heartbeat CPU  0 instructions:   44000000 cycles:   18944576 heartbeat IPC: 2.04242 cumulative IPC: 2.32256 (Simulation time: 0 hr 0 min 46 sec) 
Heartbeat CPU  0 instructions:   45000002 cycles:   19355522 heartbeat IPC: 2.43341 cumulative IPC: 2.32492 (Simulation time: 0 hr 0 min 47 sec) 
Heartbeat CPU  0 instructions:   46000000 cycles:   19722698 heartbeat IPC: 2.72348 cumulative IPC: 2.33234 (Simulation time: 0 hr 0 min 48 sec) 
Heartbeat CPU  0 instructions:   47000002 cycles:   20135558 heartbeat IPC: 2.42213 cumulative IPC: 2.33418 (Simulation time: 0 hr 0 min 49 sec) 
Heartbeat CPU  0 instructions:   48000000 cycles:   20595047 heartbeat IPC: 2.17633 cumulative IPC: 2.33066 (Simulation time: 0 hr 0 min 50 sec) 
Heartbeat CPU  0 instructions:   49000003 cycles:   21051529 heartbeat IPC: 2.19067 cumulative IPC: 2.32762 (Simulation time: 0 hr 0 min 51 sec) 
Heartbeat CPU  0 instructions:   50000003 cycles:   21561740 heartbeat IPC: 1.95997 cumulative IPC: 2.31892 (Simulation time: 0 hr 0 min 52 sec) 
Heartbeat CPU  0 instructions:   51000002 cycles:   22023117 heartbeat IPC: 2.16742 cumulative IPC: 2.31575 (Simulation time: 0 hr 0 min 53 sec) 
Heartbeat CPU  0 instructions:   52000000 cycles:   22395498 heartbeat IPC: 2.68542 cumulative IPC: 2.32190 (Simulation time: 0 hr 0 min 54 sec) 
Heartbeat CPU  0 instructions:   53000001 cycles:   22762623 heartbeat IPC: 2.72387 cumulative IPC: 2.32838 (Simulation time: 0 hr 0 min 56 sec) 
Heartbeat CPU  0 instructions:   54000001 cycles:   23212010 heartbeat IPC: 2.22525 cumulative IPC: 2.32638 (Simulation time: 0 hr 0 min 57 sec) 
Heartbeat CPU  0 instructions:   55000001 cycles:   23665460 heartbeat IPC: 2.20531 cumulative IPC: 2.32406 (Simulation time: 0 hr 0 min 58 sec) 
Heartbeat CPU  0 instructions:   56000000 cycles:   24122406 heartbeat IPC: 2.18844 cumulative IPC: 2.32149 (Simulation time: 0 hr 0 min 59 sec) 
Heartbeat CPU  0 instructions:   57000003 cycles:   24606942 heartbeat IPC: 2.06384 cumulative IPC: 2.31642 (Simulation time: 0 hr 1 min 0 sec) 
Heartbeat CPU  0 instructions:   58000001 cycles:   24999540 heartbeat IPC: 2.54713 cumulative IPC: 2.32004 (Simulation time: 0 hr 1 min 1 sec) 
Heartbeat CPU  0 instructions:   59000001 cycles:   25366475 heartbeat IPC: 2.72528 cumulative IPC: 2.32590 (Simulation time: 0 hr 1 min 2 sec) 
Heartbeat CPU  0 instructions:   60000000 cycles:   25805536 heartbeat IPC: 2.27759 cumulative IPC: 2.32508 (Simulation time: 0 hr 1 min 3 sec) 
Heartbeat CPU  0 instructions:   61000000 cycles:   26261333 heartbeat IPC: 2.19396 cumulative IPC: 2.32281 (Simulation time: 0 hr 1 min 4 sec) 
Heartbeat CPU  0 instructions:   62000000 cycles:   26718627 heartbeat IPC: 2.18678 cumulative IPC: 2.32048 (Simulation time: 0 hr 1 min 5 sec) 
Heartbeat CPU  0 instructions:   63000000 cycles:   27205175 heartbeat IPC: 2.05530 cumulative IPC: 2.31574 (Simulation time: 0 hr 1 min 6 sec) 
Heartbeat CPU  0 instructions:   64000000 cycles:   27606168 heartbeat IPC: 2.49381 cumulative IPC: 2.31832 (Simulation time: 0 hr 1 min 7 sec) 
Heartbeat CPU  0 instructions:   65000000 cycles:   27973232 heartbeat IPC: 2.72432 cumulative IPC: 2.32365 (Simulation time: 0 hr 1 min 8 sec) 
Heartbeat CPU  0 instructions:   66000001 cycles:   28398138 heartbeat IPC: 2.35346 cumulative IPC: 2.32410 (Simulation time: 0 hr 1 min 9 sec) 
Heartbeat CPU  0 instructions:   67000003 cycles:   28857727 heartbeat IPC: 2.17586 cumulative IPC: 2.32174 (Simulation time: 0 hr 1 min 10 sec) 
Heartbeat CPU  0 instructions:   68000000 cycles:   29311663 heartbeat IPC: 2.20295 cumulative IPC: 2.31990 (Simulation time: 0 hr 1 min 11 sec) 
Heartbeat CPU  0 instructions:   69000001 cycles:   29798184 heartbeat IPC: 2.05541 cumulative IPC: 2.31558 (Simulation time: 0 hr 1 min 12 sec) 
Heartbeat CPU  0 instructions:   70000001 cycles:   30206229 heartbeat IPC: 2.45071 cumulative IPC: 2.31740 (Simulation time: 0 hr 1 min 13 sec) 
Heartbeat CPU  0 instructions:   71000001 cycles:   30573429 heartbeat IPC: 2.72331 cumulative IPC: 2.32228 (Simulation time: 0 hr 1 min 14 sec) 
Heartbeat CPU  0 instructions:   72000000 cycles:   30988913 heartbeat IPC: 2.40683 cumulative IPC: 2.32341 (Simulation time: 0 hr 1 min 15 sec) 
Heartbeat CPU  0 instructions:   73000000 cycles:   31445632 heartbeat IPC: 2.18953 cumulative IPC: 2.32147 (Simulation time: 0 hr 1 min 16 sec) 
Heartbeat CPU  0 instructions:   74000002 cycles:   31900880 heartbeat IPC: 2.19661 cumulative IPC: 2.31969 (Simulation time: 0 hr 1 min 17 sec) 
Heartbeat CPU  0 instructions:   75000002 cycles:   32388909 heartbeat IPC: 2.04906 cumulative IPC: 2.31561 (Simulation time: 0 hr 1 min 18 sec) 
Heartbeat CPU  0 instructions:   76000000 cycles:   32806362 heartbeat IPC: 2.39547 cumulative IPC: 2.31662 (Simulation time: 0 hr 1 min 19 sec) 
Heartbeat CPU  0 instructions:   77000003 cycles:   33173559 heartbeat IPC: 2.72334 cumulative IPC: 2.32113 (Simulation time: 0 hr 1 min 20 sec) 
Heartbeat CPU  0 instructions:   78000002 cycles:   33581528 heartbeat IPC: 2.45116 cumulative IPC: 2.32271 (Simulation time: 0 hr 1 min 22 sec) 
Heartbeat CPU  0 instructions:   79000000 cycles:   34036656 heartbeat IPC: 2.19718 cumulative IPC: 2.32103 (Simulation time: 0 hr 1 min 23 sec) 
Heartbeat CPU  0 instructions:   80000000 cycles:   34493534 heartbeat IPC: 2.18877 cumulative IPC: 2.31928 (Simulation time: 0 hr 1 min 24 sec) 
Heartbeat CPU  0 instructions:   81000001 cycles:   34952452 heartbeat IPC: 2.17904 cumulative IPC: 2.31743 (Simulation time: 0 hr 1 min 25 sec) 
Heartbeat CPU  0 instructions:   82000001 cycles:   35437833 heartbeat IPC: 2.06024 cumulative IPC: 2.31391 (Simulation time: 0 hr 1 min 26 sec) 
Heartbeat CPU  0 instructions:   83000001 cycles:   35808850 heartbeat IPC: 2.69529 cumulative IPC: 2.31786 (Simulation time: 0 hr 1 min 27 sec) 
Heartbeat CPU  0 instructions:   84000000 cycles:   36176783 heartbeat IPC: 2.71788 cumulative IPC: 2.32193 (Simulation time: 0 hr 1 min 28 sec) 
Heartbeat CPU  0 instructions:   85000003 cycles:   36632236 heartbeat IPC: 2.19562 cumulative IPC: 2.32036 (Simulation time: 0 hr 1 min 29 sec) 
Heartbeat CPU  0 instructions:   86000001 cycles:   37087755 heartbeat IPC: 2.19529 cumulative IPC: 2.31882 (Simulation time: 0 hr 1 min 30 sec) 
Heartbeat CPU  0 instructions:   87000003 cycles:   37544879 heartbeat IPC: 2.18759 cumulative IPC: 2.31723 (Simulation time: 0 hr 1 min 31 sec) 
Heartbeat CPU  0 instructions:   88000000 cycles:   38033937 heartbeat IPC: 2.04474 cumulative IPC: 2.31372 (Simulation time: 0 hr 1 min 32 sec) 
Heartbeat CPU  0 instructions:   89000002 cycles:   38436038 heartbeat IPC: 2.48694 cumulative IPC: 2.31554 (Simulation time: 0 hr 1 min 33 sec) 
Heartbeat CPU  0 instructions:   90000002 cycles:   38803193 heartbeat IPC: 2.72365 cumulative IPC: 2.31940 (Simulation time: 0 hr 1 min 34 sec) 
Heartbeat CPU  0 instructions:   91000002 cycles:   39223891 heartbeat IPC: 2.37700 cumulative IPC: 2.32001 (Simulation time: 0 hr 1 min 35 sec) 
Heartbeat CPU  0 instructions:   92000000 cycles:   39677305 heartbeat IPC: 2.20549 cumulative IPC: 2.31871 (Simulation time: 0 hr 1 min 36 sec) 
Heartbeat CPU  0 instructions:   93000002 cycles:   40133773 heartbeat IPC: 2.19074 cumulative IPC: 2.31725 (Simulation time: 0 hr 1 min 37 sec) 
Heartbeat CPU  0 instructions:   94000001 cycles:   40621361 heartbeat IPC: 2.05091 cumulative IPC: 2.31405 (Simulation time: 0 hr 1 min 38 sec) 
Heartbeat CPU  0 instructions:   95000003 cycles:   40993010 heartbeat IPC: 2.69072 cumulative IPC: 2.31747 (Simulation time: 0 hr 1 min 39 sec) 
Heartbeat CPU  0 instructions:   96000000 cycles:   41360089 heartbeat IPC: 2.72420 cumulative IPC: 2.32108 (Simulation time: 0 hr 1 min 40 sec) 
Heartbeat CPU  0 instructions:   97000001 cycles:   41805880 heartbeat IPC: 2.24321 cumulative IPC: 2.32025 (Simulation time: 0 hr 1 min 41 sec) 
Heartbeat CPU  0 instructions:   98000002 cycles:   42262271 heartbeat IPC: 2.19111 cumulative IPC: 2.31885 (Simulation time: 0 hr 1 min 42 sec) 
Heartbeat CPU  0 instructions:   99000003 cycles:   42747961 heartbeat IPC: 2.05893 cumulative IPC: 2.31590 (Simulation time: 0 hr 1 min 43 sec) 
Heartbeat CPU  0 instructions:  100000000 cycles:   43291677 heartbeat IPC: 1.83919 cumulative IPC: 2.30991 (Simulation time: 0 hr 1 min 44 sec) 

Warmup complete CPU  0 instructions:  100000001 cycles:   43291678 (Simulation time: 0 hr 1 min 44 sec) 

Heartbeat CPU  0 instructions:  101000001 cycles:   44245109 heartbeat IPC: 1.04884 cumulative IPC: 1.04884 (Simulation time: 0 hr 1 min 45 sec) 
Heartbeat CPU  0 instructions:  102000002 cycles:   45158079 heartbeat IPC: 1.09533 cumulative IPC: 1.07158 (Simulation time: 0 hr 1 min 47 sec) 
Heartbeat CPU  0 instructions:  103000000 cycles:   46167945 heartbeat IPC: 0.99023 cumulative IPC: 1.04302 (Simulation time: 0 hr 1 min 48 sec) 
Heartbeat CPU  0 instructions:  104000000 cycles:   47409716 heartbeat IPC: 0.80530 cumulative IPC: 0.97134 (Simulation time: 0 hr 1 min 50 sec) 
Heartbeat CPU  0 instructions:  105000000 cycles:   48613259 heartbeat IPC: 0.83088 cumulative IPC: 0.93957 (Simulation time: 0 hr 1 min 51 sec) 
Heartbeat CPU  0 instructions:  106000002 cycles:   49672454 heartbeat IPC: 0.94412 cumulative IPC: 0.94032 (Simulation time: 0 hr 1 min 52 sec) 
Heartbeat CPU  0 instructions:  107000000 cycles:   50783295 heartbeat IPC: 0.90022 cumulative IPC: 0.93438 (Simulation time: 0 hr 1 min 54 sec) 
Heartbeat CPU  0 instructions:  108000000 cycles:   51951359 heartbeat IPC: 0.85612 cumulative IPC: 0.92382 (Simulation time: 0 hr 1 min 55 sec) 
Heartbeat CPU  0 instructions:  109000000 cycles:   53100503 heartbeat IPC: 0.87021 cumulative IPC: 0.91754 (Simulation time: 0 hr 1 min 56 sec) 
Heartbeat CPU  0 instructions:  110000002 cycles:   54035071 heartbeat IPC: 1.07002 cumulative IPC: 0.93080 (Simulation time: 0 hr 1 min 58 sec) 
Heartbeat CPU  0 instructions:  111000001 cycles:   54913422 heartbeat IPC: 1.13850 cumulative IPC: 0.94650 (Simulation time: 0 hr 1 min 59 sec) 
Heartbeat CPU  0 instructions:  112000000 cycles:   55859890 heartbeat IPC: 1.05656 cumulative IPC: 0.95479 (Simulation time: 0 hr 2 min 0 sec) 
Heartbeat CPU  0 instructions:  113000002 cycles:   57014530 heartbeat IPC: 0.86607 cumulative IPC: 0.94732 (Simulation time: 0 hr 2 min 2 sec) 
Heartbeat CPU  0 instructions:  114000001 cycles:   58100904 heartbeat IPC: 0.92049 cumulative IPC: 0.94536 (Simulation time: 0 hr 2 min 3 sec) 
Heartbeat CPU  0 instructions:  115000000 cycles:   59096314 heartbeat IPC: 1.00461 cumulative IPC: 0.94909 (Simulation time: 0 hr 2 min 4 sec) 
Heartbeat CPU  0 instructions:  116000000 cycles:   59960576 heartbeat IPC: 1.15706 cumulative IPC: 0.95987 (Simulation time: 0 hr 2 min 6 sec) 
Heartbeat CPU  0 instructions:  117000000 cycles:   61059858 heartbeat IPC: 0.90968 cumulative IPC: 0.95677 (Simulation time: 0 hr 2 min 7 sec) 
Heartbeat CPU  0 instructions:  118000003 cycles:   62190601 heartbeat IPC: 0.88438 cumulative IPC: 0.95244 (Simulation time: 0 hr 2 min 8 sec) 
Heartbeat CPU  0 instructions:  119000002 cycles:   63358743 heartbeat IPC: 0.85606 cumulative IPC: 0.94683 (Simulation time: 0 hr 2 min 9 sec) 
Heartbeat CPU  0 instructions:  120000000 cycles:   64616331 heartbeat IPC: 0.79517 cumulative IPC: 0.93788 (Simulation time: 0 hr 2 min 11 sec) 
Heartbeat CPU  0 instructions:  121000000 cycles:   65608022 heartbeat IPC: 1.00838 cumulative IPC: 0.94101 (Simulation time: 0 hr 2 min 12 sec) 
Heartbeat CPU  0 instructions:  122000001 cycles:   66488188 heartbeat IPC: 1.13615 cumulative IPC: 0.94842 (Simulation time: 0 hr 2 min 13 sec) 
Heartbeat CPU  0 instructions:  123000001 cycles:   67442157 heartbeat IPC: 1.04825 cumulative IPC: 0.95236 (Simulation time: 0 hr 2 min 15 sec) 
Heartbeat CPU  0 instructions:  124000000 cycles:   68597980 heartbeat IPC: 0.86518 cumulative IPC: 0.94838 (Simulation time: 0 hr 2 min 16 sec) 
Heartbeat CPU  0 instructions:  125000001 cycles:   69771313 heartbeat IPC: 0.85227 cumulative IPC: 0.94412 (Simulation time: 0 hr 2 min 17 sec) 
Heartbeat CPU  0 instructions:  126000003 cycles:   70934452 heartbeat IPC: 0.85974 cumulative IPC: 0.94057 (Simulation time: 0 hr 2 min 18 sec) 
Heartbeat CPU  0 instructions:  127000000 cycles:   72034997 heartbeat IPC: 0.90864 cumulative IPC: 0.93935 (Simulation time: 0 hr 2 min 20 sec) 
Heartbeat CPU  0 instructions:  128000000 cycles:   72900795 heartbeat IPC: 1.15500 cumulative IPC: 0.94565 (Simulation time: 0 hr 2 min 21 sec) 
Heartbeat CPU  0 instructions:  129000000 cycles:   73786099 heartbeat IPC: 1.12956 cumulative IPC: 0.95099 (Simulation time: 0 hr 2 min 22 sec) 
Heartbeat CPU  0 instructions:  130000000 cycles:   74952427 heartbeat IPC: 0.85739 cumulative IPC: 0.94755 (Simulation time: 0 hr 2 min 24 sec) 
Heartbeat CPU  0 instructions:  131000002 cycles:   76125732 heartbeat IPC: 0.85230 cumulative IPC: 0.94414 (Simulation time: 0 hr 2 min 25 sec) 
Heartbeat CPU  0 instructions:  132000000 cycles:   77291960 heartbeat IPC: 0.85746 cumulative IPC: 0.94117 (Simulation time: 0 hr 2 min 26 sec) 
Heartbeat CPU  0 instructions:  133000000 cycles:   78215438 heartbeat IPC: 1.08286 cumulative IPC: 0.94492 (Simulation time: 0 hr 2 min 28 sec) 
Heartbeat CPU  0 instructions:  134000000 cycles:   79106514 heartbeat IPC: 1.12224 cumulative IPC: 0.94933 (Simulation time: 0 hr 2 min 29 sec) 
Heartbeat CPU  0 instructions:  135000001 cycles:   80116096 heartbeat IPC: 0.99051 cumulative IPC: 0.95046 (Simulation time: 0 hr 2 min 30 sec) 
Heartbeat CPU  0 instructions:  136000000 cycles:   81283116 heartbeat IPC: 0.85688 cumulative IPC: 0.94758 (Simulation time: 0 hr 2 min 32 sec) 
Heartbeat CPU  0 instructions:  137000002 cycles:   82420243 heartbeat IPC: 0.87941 cumulative IPC: 0.94560 (Simulation time: 0 hr 2 min 33 sec) 
Heartbeat CPU  0 instructions:  138000002 cycles:   83301005 heartbeat IPC: 1.13538 cumulative IPC: 0.94978 (Simulation time: 0 hr 2 min 34 sec) 
Heartbeat CPU  0 instructions:  139000002 cycles:   84195699 heartbeat IPC: 1.11770 cumulative IPC: 0.95345 (Simulation time: 0 hr 2 min 35 sec) 
Heartbeat CPU  0 instructions:  140000000 cycles:   85231623 heartbeat IPC: 0.96532 cumulative IPC: 0.95374 (Simulation time: 0 hr 2 min 37 sec) 
Heartbeat CPU  0 instructions:  141000000 cycles:   86401234 heartbeat IPC: 0.85499 cumulative IPC: 0.95107 (Simulation time: 0 hr 2 min 38 sec) 
Heartbeat CPU  0 instructions:  142000001 cycles:   87511478 heartbeat IPC: 0.90070 cumulative IPC: 0.94980 (Simulation time: 0 hr 2 min 39 sec) 
Heartbeat CPU  0 instructions:  143000003 cycles:   88346693 heartbeat IPC: 1.19730 cumulative IPC: 0.95439 (Simulation time: 0 hr 2 min 41 sec) 
Heartbeat CPU  0 instructions:  144000000 cycles:   89215175 heartbeat IPC: 1.15143 cumulative IPC: 0.95812 (Simulation time: 0 hr 2 min 42 sec) 
Heartbeat CPU  0 instructions:  145000002 cycles:   90327150 heartbeat IPC: 0.89930 cumulative IPC: 0.95672 (Simulation time: 0 hr 2 min 43 sec) 
Heartbeat CPU  0 instructions:  146000002 cycles:   91490980 heartbeat IPC: 0.85923 cumulative IPC: 0.95437 (Simulation time: 0 hr 2 min 45 sec) 
Heartbeat CPU  0 instructions:  147000002 cycles:   92474266 heartbeat IPC: 1.01700 cumulative IPC: 0.95562 (Simulation time: 0 hr 2 min 46 sec) 
Heartbeat CPU  0 instructions:  148000000 cycles:   93339027 heartbeat IPC: 1.15639 cumulative IPC: 0.95909 (Simulation time: 0 hr 2 min 47 sec) 
Heartbeat CPU  0 instructions:  149000000 cycles:   94253789 heartbeat IPC: 1.09318 cumulative IPC: 0.96150 (Simulation time: 0 hr 2 min 49 sec) 
Heartbeat CPU  0 instructions:  150000003 cycles:   95419628 heartbeat IPC: 0.85775 cumulative IPC: 0.95918 (Simulation time: 0 hr 2 min 50 sec) 
Heartbeat CPU  0 instructions:  151000002 cycles:   96582651 heartbeat IPC: 0.85983 cumulative IPC: 0.95701 (Simulation time: 0 hr 2 min 51 sec) 
Heartbeat CPU  0 instructions:  152000000 cycles:   97499072 heartbeat IPC: 1.09120 cumulative IPC: 0.95928 (Simulation time: 0 hr 2 min 52 sec) 
Heartbeat CPU  0 instructions:  153000001 cycles:   98378049 heartbeat IPC: 1.13769 cumulative IPC: 0.96213 (Simulation time: 0 hr 2 min 54 sec) 
Heartbeat CPU  0 instructions:  154000003 cycles:   99257066 heartbeat IPC: 1.13764 cumulative IPC: 0.96488 (Simulation time: 0 hr 2 min 55 sec) 
Heartbeat CPU  0 instructions:  155000003 cycles:  100260012 heartbeat IPC: 0.99706 cumulative IPC: 0.96545 (Simulation time: 0 hr 2 min 56 sec) 
Heartbeat CPU  0 instructions:  156000000 cycles:  101426019 heartbeat IPC: 0.85763 cumulative IPC: 0.96329 (Simulation time: 0 hr 2 min 58 sec) 
Heartbeat CPU  0 instructions:  157000003 cycles:  102504878 heartbeat IPC: 0.92691 cumulative IPC: 0.96262 (Simulation time: 0 hr 2 min 59 sec) 
Heartbeat CPU  0 instructions:  158000002 cycles:  103373948 heartbeat IPC: 1.15065 cumulative IPC: 0.96534 (Simulation time: 0 hr 3 min 0 sec) 
Heartbeat CPU  0 instructions:  159000000 cycles:  104283715 heartbeat IPC: 1.09918 cumulative IPC: 0.96734 (Simulation time: 0 hr 3 min 2 sec) 
Heartbeat CPU  0 instructions:  160000000 cycles:  105450740 heartbeat IPC: 0.85688 cumulative IPC: 0.96527 (Simulation time: 0 hr 3 min 3 sec) 
Heartbeat CPU  0 instructions:  161000000 cycles:  106591841 heartbeat IPC: 0.87635 cumulative IPC: 0.96366 (Simulation time: 0 hr 3 min 4 sec) 
Heartbeat CPU  0 instructions:  162000003 cycles:  107495601 heartbeat IPC: 1.10649 cumulative IPC: 0.96567 (Simulation time: 0 hr 3 min 6 sec) 
Heartbeat CPU  0 instructions:  163000002 cycles:  108380238 heartbeat IPC: 1.13041 cumulative IPC: 0.96791 (Simulation time: 0 hr 3 min 7 sec) 
Heartbeat CPU  0 instructions:  164000000 cycles:  109375764 heartbeat IPC: 1.00449 cumulative IPC: 0.96846 (Simulation time: 0 hr 3 min 8 sec) 
Heartbeat CPU  0 instructions:  165000000 cycles:  110538846 heartbeat IPC: 0.85978 cumulative IPC: 0.96658 (Simulation time: 0 hr 3 min 10 sec) 
Heartbeat CPU  0 instructions:  166000002 cycles:  111608120 heartbeat IPC: 0.93522 cumulative IPC: 0.96609 (Simulation time: 0 hr 3 min 11 sec) 
Heartbeat CPU  0 instructions:  167000001 cycles:  112447637 heartbeat IPC: 1.19116 cumulative IPC: 0.96882 (Simulation time: 0 hr 3 min 12 sec) 
Heartbeat CPU  0 instructions:  168000000 cycles:  113307344 heartbeat IPC: 1.16319 cumulative IPC: 0.97121 (Simulation time: 0 hr 3 min 14 sec) 
Heartbeat CPU  0 instructions:  169000000 cycles:  114460360 heartbeat IPC: 0.86729 cumulative IPC: 0.96953 (Simulation time: 0 hr 3 min 15 sec) 
Heartbeat CPU  0 instructions:  170000000 cycles:  115610437 heartbeat IPC: 0.86951 cumulative IPC: 0.96794 (Simulation time: 0 hr 3 min 16 sec) 
Heartbeat CPU  0 instructions:  171000003 cycles:  116528025 heartbeat IPC: 1.08982 cumulative IPC: 0.96946 (Simulation time: 0 hr 3 min 17 sec) 
Heartbeat CPU  0 instructions:  172000000 cycles:  117408564 heartbeat IPC: 1.13566 cumulative IPC: 0.97144 (Simulation time: 0 hr 3 min 19 sec) 
Heartbeat CPU  0 instructions:  173000000 cycles:  118396405 heartbeat IPC: 1.01231 cumulative IPC: 0.97198 (Simulation time: 0 hr 3 min 20 sec) 
Heartbeat CPU  0 instructions:  174000000 cycles:  119566560 heartbeat IPC: 0.85459 cumulative IPC: 0.97018 (Simulation time: 0 hr 3 min 21 sec) 
Heartbeat CPU  0 instructions:  175000002 cycles:  120651564 heartbeat IPC: 0.92166 cumulative IPC: 0.96949 (Simulation time: 0 hr 3 min 23 sec) 
Heartbeat CPU  0 instructions:  176000000 cycles:  121486766 heartbeat IPC: 1.19731 cumulative IPC: 0.97193 (Simulation time: 0 hr 3 min 24 sec) 
Heartbeat CPU  0 instructions:  177000003 cycles:  122346250 heartbeat IPC: 1.16349 cumulative IPC: 0.97401 (Simulation time: 0 hr 3 min 25 sec) 
Heartbeat CPU  0 instructions:  178000003 cycles:  123489037 heartbeat IPC: 0.87505 cumulative IPC: 0.97260 (Simulation time: 0 hr 3 min 27 sec) 
Heartbeat CPU  0 instructions:  179000002 cycles:  124640190 heartbeat IPC: 0.86869 cumulative IPC: 0.97113 (Simulation time: 0 hr 3 min 28 sec) 
Heartbeat CPU  0 instructions:  180000000 cycles:  125551156 heartbeat IPC: 1.09773 cumulative IPC: 0.97253 (Simulation time: 0 hr 3 min 29 sec) 
Heartbeat CPU  0 instructions:  181000002 cycles:  126430708 heartbeat IPC: 1.13694 cumulative IPC: 0.97427 (Simulation time: 0 hr 3 min 30 sec) 
Heartbeat CPU  0 instructions:  182000002 cycles:  127413479 heartbeat IPC: 1.01753 cumulative IPC: 0.97478 (Simulation time: 0 hr 3 min 32 sec) 
Heartbeat CPU  0 instructions:  183000002 cycles:  128561665 heartbeat IPC: 0.87094 cumulative IPC: 0.97338 (Simulation time: 0 hr 3 min 33 sec) 
Heartbeat CPU  0 instructions:  184000000 cycles:  129657388 heartbeat IPC: 0.91264 cumulative IPC: 0.97261 (Simulation time: 0 hr 3 min 34 sec) 
Heartbeat CPU  0 instructions:  185000003 cycles:  130487530 heartbeat IPC: 1.20462 cumulative IPC: 0.97482 (Simulation time: 0 hr 3 min 36 sec) 
Heartbeat CPU  0 instructions:  186000002 cycles:  131349085 heartbeat IPC: 1.16069 cumulative IPC: 0.97664 (Simulation time: 0 hr 3 min 37 sec) 
Heartbeat CPU  0 instructions:  187000003 cycles:  132494018 heartbeat IPC: 0.87341 cumulative IPC: 0.97531 (Simulation time: 0 hr 3 min 38 sec) 
Heartbeat CPU  0 instructions:  188000000 cycles:  133645396 heartbeat IPC: 0.86852 cumulative IPC: 0.97395 (Simulation time: 0 hr 3 min 39 sec) 
Heartbeat CPU  0 instructions:  189000003 cycles:  134569062 heartbeat IPC: 1.08265 cumulative IPC: 0.97505 (Simulation time: 0 hr 3 min 41 sec) 
Heartbeat CPU  0 instructions:  190000001 cycles:  135450177 heartbeat IPC: 1.13492 cumulative IPC: 0.97658 (Simulation time: 0 hr 3 min 42 sec) 
Heartbeat CPU  0 instructions:  191000001 cycles:  136429449 heartbeat IPC: 1.02117 cumulative IPC: 0.97705 (Simulation time: 0 hr 3 min 43 sec) 
Heartbeat CPU  0 instructions:  192000000 cycles:  137582333 heartbeat IPC: 0.86739 cumulative IPC: 0.97571 (Simulation time: 0 hr 3 min 45 sec) 
Heartbeat CPU  0 instructions:  193000002 cycles:  138680687 heartbeat IPC: 0.91046 cumulative IPC: 0.97496 (Simulation time: 0 hr 3 min 46 sec) 
Heartbeat CPU  0 instructions:  194000002 cycles:  139514933 heartbeat IPC: 1.19869 cumulative IPC: 0.97689 (Simulation time: 0 hr 3 min 47 sec) 
Heartbeat CPU  0 instructions:  195000001 cycles:  140378088 heartbeat IPC: 1.15854 cumulative IPC: 0.97851 (Simulation time: 0 hr 3 min 49 sec) 
Heartbeat CPU  0 instructions:  196000000 cycles:  141514201 heartbeat IPC: 0.88019 cumulative IPC: 0.97737 (Simulation time: 0 hr 3 min 50 sec) 
Heartbeat CPU  0 instructions:  197000002 cycles:  142676104 heartbeat IPC: 0.86066 cumulative IPC: 0.97601 (Simulation time: 0 hr 3 min 51 sec) 
Heartbeat CPU  0 instructions:  198000002 cycles:  143582046 heartbeat IPC: 1.10382 cumulative IPC: 0.97716 (Simulation time: 0 hr 3 min 53 sec) 
Heartbeat CPU  0 instructions:  199000001 cycles:  144459141 heartbeat IPC: 1.14013 cumulative IPC: 0.97858 (Simulation time: 0 hr 3 min 54 sec) 
Heartbeat CPU  0 instructions:  200000000 cycles:  145428666 heartbeat IPC: 1.03143 cumulative IPC: 0.97908 (Simulation time: 0 hr 3 min 55 sec) 
Finished CPU 0 instructions: 100000003 cycles: 102136996 cumulative IPC: 0.97908 (Simulation time: 0 hr 3 min 55 sec) 

ChampSim completed all CPUs

[ROI Statistics]
Core_0_instructions 100000003
Core_0_cycles 102136996
Core_0_IPC 0.97908

Core_0_branch_prediction_accuracy 97.76309
Core_0_branch_MPKI 1.93474
Core_0_average_ROB_occupancy_at_mispredict 145.04645

Core_0_L1D_total_access 25698908
Core_0_L1D_total_hit 24037373
Core_0_L1D_total_miss 1661535
Core_0_L1D_loads 14170343
Core_0_L1D_load_hit 13459994
Core_0_L1D_load_miss 710349
Core_0_L1D_RFOs 1375598
Core_0_L1D_RFO_hit 1287017
Core_0_L1D_RFO_miss 88581
Core_0_L1D_prefetches 10152967
Core_0_L1D_prefetch_hit 9290362
Core_0_L1D_prefetch_miss 862605
Core_0_L1D_writebacks 0
Core_0_L1D_writeback_hit 0
Core_0_L1D_writeback_miss 0
Core_0_L1D_prefetch_requested 39238381
Core_0_L1D_prefetch_issued 38815174
Core_0_L1D_prefetch_useful 1664096
Core_0_L1D_prefetch_useless 523176
Core_0_L1D_prefetch_late 397096
Core_0_L1D_average_miss_latency 22084762.26746

Core_0_L1I_total_access 24387742
Core_0_L1I_total_hit 24387441
Core_0_L1I_total_miss 301
Core_0_L1I_loads 24387742
Core_0_L1I_load_hit 24387441
Core_0_L1I_load_miss 301
Core_0_L1I_RFOs 0
Core_0_L1I_RFO_hit 0
Core_0_L1I_RFO_miss 0
Core_0_L1I_prefetches 0
Core_0_L1I_prefetch_hit 0
Core_0_L1I_prefetch_miss 0
Core_0_L1I_writebacks 0
Core_0_L1I_writeback_hit 0
Core_0_L1I_writeback_miss 0
Core_0_L1I_prefetch_requested 0
Core_0_L1I_prefetch_issued 0
Core_0_L1I_prefetch_useful 0
Core_0_L1I_prefetch_useless 0
Core_0_L1I_prefetch_late 0
Core_0_L1I_average_miss_latency 229.97674

Core_0_L2C_total_access 1773756
Core_0_L2C_total_hit 475784
Core_0_L2C_total_miss 1297972
Core_0_L2C_loads 323076
Core_0_L2C_load_hit 157729
Core_0_L2C_load_miss 165347
Core_0_L2C_RFOs 88559
Core_0_L2C_RFO_hit 8939
Core_0_L2C_RFO_miss 79620
Core_0_L2C_prefetches 1250191
Core_0_L2C_prefetch_hit 197493
Core_0_L2C_prefetch_miss 1052698
Core_0_L2C_writebacks 111930
Core_0_L2C_writeback_hit 111623
Core_0_L2C_writeback_miss 307
Core_0_L2C_prefetch_requested 0
Core_0_L2C_prefetch_issued 0
Core_0_L2C_prefetch_useful 30298
Core_0_L2C_prefetch_useless 2105216
Core_0_L2C_prefetch_late 0
Core_0_L2C_average_miss_latency 148.58075

Core_0_LLC_total_access 1402875
Core_0_LLC_total_hit 287814
Core_0_LLC_total_miss 1115061
Core_0_LLC_loads 165347
Core_0_LLC_load_hit 46254
Core_0_LLC_load_miss 119093
Core_0_LLC_RFOs 79620
Core_0_LLC_RFO_hit 76668
Core_0_LLC_RFO_miss 2952
Core_0_LLC_prefetches 1052698
Core_0_LLC_prefetch_hit 59786
Core_0_LLC_prefetch_miss 992912
Core_0_LLC_writebacks 105210
Core_0_LLC_writeback_hit 105106
Core_0_LLC_writeback_miss 104
Core_0_LLC_prefetch_requested 0
Core_0_LLC_prefetch_issued 0
Core_0_LLC_prefetch_useful 2718
Core_0_LLC_prefetch_useless 1986728
Core_0_LLC_prefetch_late 0
Core_0_LLC_average_miss_latency 136.71367

Core_0_major_page_fault 0
Core_0_minor_page_fault 3151

CPU 0 L1D next line prefetcher final stats
Channel_0_RQ_row_buffer_hit 778298
Channel_0_RQ_row_buffer_miss 336659
Channel_0_WQ_row_buffer_hit 8181
Channel_0_WQ_row_buffer_miss 7667
Channel_0_WQ_full 0
Channel_0_dbus_congested 170069

avg_congested_cycle 8
