*************************************************
   ChampSim Multicore Out-of-Order Simulator
   Last compiled: Dec 22 2023 17:13:36
*************************************************

trace_0 ./test_trace/482.sphinx3-1100B.champsimtrace.xz
Initialize DRRIP state
Assign rand_sets[0]: 454  LLC: 2048
rand_sets[0]: 454
Assign rand_sets[1]: 1662  LLC: 2048
rand_sets[1]: 1662
Assign rand_sets[2]: 1921  LLC: 2048
rand_sets[2]: 1921
Assign rand_sets[3]: 1131  LLC: 2048
rand_sets[3]: 1131
Assign rand_sets[4]: 331  LLC: 2048
rand_sets[4]: 331
Assign rand_sets[5]: 1531  LLC: 2048
rand_sets[5]: 1531
Assign rand_sets[6]: 482  LLC: 2048
rand_sets[6]: 482
Assign rand_sets[7]: 1275  LLC: 2048
rand_sets[7]: 1275
Assign rand_sets[8]: 1876  LLC: 2048
rand_sets[8]: 1876
Assign rand_sets[9]: 2038  LLC: 2048
rand_sets[9]: 2038
Assign rand_sets[10]: 701  LLC: 2048
rand_sets[10]: 701
Assign rand_sets[11]: 479  LLC: 2048
rand_sets[11]: 479
Assign rand_sets[12]: 892  LLC: 2048
rand_sets[12]: 892
Assign rand_sets[13]: 1820  LLC: 2048
rand_sets[13]: 1820
Assign rand_sets[14]: 1505  LLC: 2048
rand_sets[14]: 1505
Assign rand_sets[15]: 1159  LLC: 2048
rand_sets[15]: 1159
Assign rand_sets[16]: 513  LLC: 2048
rand_sets[16]: 513
Assign rand_sets[17]: 703  LLC: 2048
rand_sets[17]: 703
Assign rand_sets[18]: 561  LLC: 2048
rand_sets[18]: 561
Assign rand_sets[19]: 990  LLC: 2048
rand_sets[19]: 990
Assign rand_sets[20]: 342  LLC: 2048
rand_sets[20]: 342
Assign rand_sets[21]: 882  LLC: 2048
rand_sets[21]: 882
Assign rand_sets[22]: 15  LLC: 2048
rand_sets[22]: 15
Assign rand_sets[23]: 71  LLC: 2048
rand_sets[23]: 71
Assign rand_sets[24]: 1127  LLC: 2048
rand_sets[24]: 1127
Assign rand_sets[25]: 1382  LLC: 2048
rand_sets[25]: 1382
Assign rand_sets[26]: 647  LLC: 2048
rand_sets[26]: 647
Assign rand_sets[27]: 857  LLC: 2048
rand_sets[27]: 857
Assign rand_sets[28]: 1450  LLC: 2048
rand_sets[28]: 1450
Assign rand_sets[29]: 1160  LLC: 2048
rand_sets[29]: 1160
Assign rand_sets[30]: 1852  LLC: 2048
rand_sets[30]: 1852
Assign rand_sets[31]: 1881  LLC: 2048
rand_sets[31]: 1881
Assign rand_sets[32]: 1770  LLC: 2048
rand_sets[32]: 1770
Assign rand_sets[33]: 1622  LLC: 2048
rand_sets[33]: 1622
Assign rand_sets[34]: 275  LLC: 2048
rand_sets[34]: 275
Assign rand_sets[35]: 635  LLC: 2048
rand_sets[35]: 635
Assign rand_sets[36]: 466  LLC: 2048
rand_sets[36]: 466
Assign rand_sets[37]: 1413  LLC: 2048
rand_sets[37]: 1413
Assign rand_sets[38]: 417  LLC: 2048
rand_sets[38]: 417
Assign rand_sets[39]: 472  LLC: 2048
rand_sets[39]: 472
Assign rand_sets[40]: 1340  LLC: 2048
rand_sets[40]: 1340
Assign rand_sets[41]: 852  LLC: 2048
rand_sets[41]: 852
Assign rand_sets[42]: 1365  LLC: 2048
rand_sets[42]: 1365
Assign rand_sets[43]: 47  LLC: 2048
rand_sets[43]: 47
Assign rand_sets[44]: 823  LLC: 2048
rand_sets[44]: 823
Assign rand_sets[45]: 686  LLC: 2048
rand_sets[45]: 686
Assign rand_sets[46]: 1637  LLC: 2048
rand_sets[46]: 1637
Assign rand_sets[47]: 1115  LLC: 2048
rand_sets[47]: 1115
Assign rand_sets[48]: 986  LLC: 2048
rand_sets[48]: 986
Assign rand_sets[49]: 258  LLC: 2048
rand_sets[49]: 258
Assign rand_sets[50]: 633  LLC: 2048
rand_sets[50]: 633
Assign rand_sets[51]: 920  LLC: 2048
rand_sets[51]: 920
Assign rand_sets[52]: 204  LLC: 2048
rand_sets[52]: 204
Assign rand_sets[53]: 227  LLC: 2048
rand_sets[53]: 227
Assign rand_sets[54]: 1818  LLC: 2048
rand_sets[54]: 1818
Assign rand_sets[55]: 886  LLC: 2048
rand_sets[55]: 886
Assign rand_sets[56]: 1422  LLC: 2048
rand_sets[56]: 1422
Assign rand_sets[57]: 607  LLC: 2048
rand_sets[57]: 607
Assign rand_sets[58]: 217  LLC: 2048
rand_sets[58]: 217
Assign rand_sets[59]: 1945  LLC: 2048
rand_sets[59]: 1945
Assign rand_sets[60]: 143  LLC: 2048
rand_sets[60]: 143
Assign rand_sets[61]: 1311  LLC: 2048
rand_sets[61]: 1311
Assign rand_sets[62]: 319  LLC: 2048
rand_sets[62]: 319
Assign rand_sets[63]: 1846  LLC: 2048
rand_sets[63]: 1846
warmup_instructions 100000000
simulation_instructions 100000000
champsim_seed 260

num_cpus 1
cpu_freq 4000
dram_io_freq 2400
page_size 4096
block_size 64
max_read_per_cycle 8
max_fill_per_cycle 1
dram_channels 1
dram_ranks 1
dram_banks 8
dram_rows 65536
dram_columns 128
dram_row_size 8
dram_size 4096
dram_pages 1048576

fetch_width 6
decode_width 6
exec_width 4
lq_width 2
sq_width 2
retire_width 4
scheduler_size 128
branch_mispredict_penalty 20
rob_size 256
lq_size 72
sq_size 56
num_instr_destinations_sparc 4
num_instr_destinations 2
num_instr_sources 4

itlb_set 16
itlb_way 8
itlb_rq_size 16
itlb_wq_size 16
itlb_pq_size 0
itlb_mshr_size 8
itlb_latency 1

dtlb_set 16
dtlb_way 4
dtlb_rq_size 16
dtlb_wq_size 16
dtlb_pq_size 0
dtlb_mshr_size 8
dtlb_latency 1

stlb_set 128
stlb_way 12
stlb_rq_size 32
stlb_wq_size 32
stlb_pq_size 0
stlb_mshr_size 16
stlb_latency 8

l1i_size 32
l1i_set 64
l1i_way 8
l1i_rq_size 64
l1i_wq_size 64
l1i_pq_size 8
l1i_mshr_size 8
l1i_latency 1

l1d_size 32
l1d_set 64
l1d_way 8
l1d_rq_size 64
l1d_wq_size 64
l1d_pq_size 8
l1d_mshr_size 16
l1d_latency 4

l2c_size 512
l2c_set 1024
l2c_way 8
l2c_rq_size 32
l2c_wq_size 32
l2c_pq_size 16
l2c_mshr_size 32
l2c_latency 10

llc_size 2048
llc_set 2048
llc_way 16
llc_rq_size 32
llc_wq_size 32
llc_pq_size 32
llc_mshr_size 64
llc_latency 20

dram_channel_width 8
dram_wq_size 64
dram_rq_size 64
tRP 15
tRCD 15
tCAS 12.5
dram_dbus_turn_around_time 30
dram_write_high_wm 56
dram_write_low_wm 48
min_dram_writes_per_switch 16
dram_mtps 2400
dram_dbus_return_time 13


Heartbeat CPU  0 instructions:    1000001 cycles:     366324 heartbeat IPC: 2.72983 cumulative IPC: 2.72983 (Simulation time: 0 hr 0 min 1 sec) 
Heartbeat CPU  0 instructions:    2000003 cycles:     793305 heartbeat IPC: 2.34203 cumulative IPC: 2.52110 (Simulation time: 0 hr 0 min 2 sec) 
Heartbeat CPU  0 instructions:    3000001 cycles:    1250972 heartbeat IPC: 2.18499 cumulative IPC: 2.39814 (Simulation time: 0 hr 0 min 3 sec) 
Heartbeat CPU  0 instructions:    4000000 cycles:    1733417 heartbeat IPC: 2.07277 cumulative IPC: 2.30758 (Simulation time: 0 hr 0 min 4 sec) 
Heartbeat CPU  0 instructions:    5000000 cycles:    2175864 heartbeat IPC: 2.26016 cumulative IPC: 2.29794 (Simulation time: 0 hr 0 min 5 sec) 
Heartbeat CPU  0 instructions:    6000001 cycles:    2541566 heartbeat IPC: 2.73447 cumulative IPC: 2.36075 (Simulation time: 0 hr 0 min 6 sec) 
Heartbeat CPU  0 instructions:    7000000 cycles:    2931730 heartbeat IPC: 2.56302 cumulative IPC: 2.38767 (Simulation time: 0 hr 0 min 7 sec) 
Heartbeat CPU  0 instructions:    8000000 cycles:    3390501 heartbeat IPC: 2.17974 cumulative IPC: 2.35953 (Simulation time: 0 hr 0 min 8 sec) 
Heartbeat CPU  0 instructions:    9000000 cycles:    3848456 heartbeat IPC: 2.18362 cumulative IPC: 2.33860 (Simulation time: 0 hr 0 min 9 sec) 
Heartbeat CPU  0 instructions:   10000000 cycles:    4338953 heartbeat IPC: 2.03875 cumulative IPC: 2.30470 (Simulation time: 0 hr 0 min 10 sec) 
Heartbeat CPU  0 instructions:   11000001 cycles:    4709996 heartbeat IPC: 2.69511 cumulative IPC: 2.33546 (Simulation time: 0 hr 0 min 11 sec) 
Heartbeat CPU  0 instructions:   12000000 cycles:    5075985 heartbeat IPC: 2.73232 cumulative IPC: 2.36407 (Simulation time: 0 hr 0 min 12 sec) 
Heartbeat CPU  0 instructions:   13000001 cycles:    5525202 heartbeat IPC: 2.22610 cumulative IPC: 2.35286 (Simulation time: 0 hr 0 min 13 sec) 
Heartbeat CPU  0 instructions:   14000000 cycles:    5983355 heartbeat IPC: 2.18267 cumulative IPC: 2.33982 (Simulation time: 0 hr 0 min 14 sec) 
Heartbeat CPU  0 instructions:   15000000 cycles:    6465938 heartbeat IPC: 2.07218 cumulative IPC: 2.31985 (Simulation time: 0 hr 0 min 15 sec) 
Heartbeat CPU  0 instructions:   16000000 cycles:    6875294 heartbeat IPC: 2.44286 cumulative IPC: 2.32717 (Simulation time: 0 hr 0 min 16 sec) 
Heartbeat CPU  0 instructions:   17000003 cycles:    7241217 heartbeat IPC: 2.73282 cumulative IPC: 2.34767 (Simulation time: 0 hr 0 min 18 sec) 
Heartbeat CPU  0 instructions:   18000003 cycles:    7652671 heartbeat IPC: 2.43041 cumulative IPC: 2.35212 (Simulation time: 0 hr 0 min 19 sec) 
Heartbeat CPU  0 instructions:   19000003 cycles:    8110860 heartbeat IPC: 2.18251 cumulative IPC: 2.34254 (Simulation time: 0 hr 0 min 20 sec) 
Heartbeat CPU  0 instructions:   20000000 cycles:    8579319 heartbeat IPC: 2.13465 cumulative IPC: 2.33119 (Simulation time: 0 hr 0 min 21 sec) 
Heartbeat CPU  0 instructions:   21000002 cycles:    9038364 heartbeat IPC: 2.17844 cumulative IPC: 2.32343 (Simulation time: 0 hr 0 min 22 sec) 
Heartbeat CPU  0 instructions:   22000003 cycles:    9404038 heartbeat IPC: 2.73468 cumulative IPC: 2.33942 (Simulation time: 0 hr 0 min 23 sec) 
Heartbeat CPU  0 instructions:   23000001 cycles:    9783650 heartbeat IPC: 2.63426 cumulative IPC: 2.35086 (Simulation time: 0 hr 0 min 24 sec) 
Heartbeat CPU  0 instructions:   24000000 cycles:   10239219 heartbeat IPC: 2.19506 cumulative IPC: 2.34393 (Simulation time: 0 hr 0 min 25 sec) 
Heartbeat CPU  0 instructions:   25000002 cycles:   10694881 heartbeat IPC: 2.19461 cumulative IPC: 2.33757 (Simulation time: 0 hr 0 min 26 sec) 
Heartbeat CPU  0 instructions:   26000002 cycles:   11173847 heartbeat IPC: 2.08783 cumulative IPC: 2.32686 (Simulation time: 0 hr 0 min 27 sec) 
Heartbeat CPU  0 instructions:   27000001 cycles:   11566067 heartbeat IPC: 2.54959 cumulative IPC: 2.33441 (Simulation time: 0 hr 0 min 28 sec) 
Heartbeat CPU  0 instructions:   28000000 cycles:   11931851 heartbeat IPC: 2.73385 cumulative IPC: 2.34666 (Simulation time: 0 hr 0 min 29 sec) 
Heartbeat CPU  0 instructions:   29000001 cycles:   12367935 heartbeat IPC: 2.29314 cumulative IPC: 2.34477 (Simulation time: 0 hr 0 min 30 sec) 
Heartbeat CPU  0 instructions:   30000003 cycles:   12821301 heartbeat IPC: 2.20573 cumulative IPC: 2.33986 (Simulation time: 0 hr 0 min 31 sec) 
Heartbeat CPU  0 instructions:   31000002 cycles:   13275043 heartbeat IPC: 2.20389 cumulative IPC: 2.33521 (Simulation time: 0 hr 0 min 32 sec) 
Heartbeat CPU  0 instructions:   32000000 cycles:   13758193 heartbeat IPC: 2.06975 cumulative IPC: 2.32589 (Simulation time: 0 hr 0 min 33 sec) 
Heartbeat CPU  0 instructions:   33000003 cycles:   14158480 heartbeat IPC: 2.49821 cumulative IPC: 2.33076 (Simulation time: 0 hr 0 min 34 sec) 
Heartbeat CPU  0 instructions:   34000003 cycles:   14524313 heartbeat IPC: 2.73349 cumulative IPC: 2.34090 (Simulation time: 0 hr 0 min 35 sec) 
Heartbeat CPU  0 instructions:   35000000 cycles:   14951200 heartbeat IPC: 2.34253 cumulative IPC: 2.34095 (Simulation time: 0 hr 0 min 36 sec) 
Heartbeat CPU  0 instructions:   36000000 cycles:   15404968 heartbeat IPC: 2.20377 cumulative IPC: 2.33691 (Simulation time: 0 hr 0 min 37 sec) 
Heartbeat CPU  0 instructions:   37000000 cycles:   15858827 heartbeat IPC: 2.20333 cumulative IPC: 2.33309 (Simulation time: 0 hr 0 min 38 sec) 
Heartbeat CPU  0 instructions:   38000003 cycles:   16346524 heartbeat IPC: 2.05046 cumulative IPC: 2.32465 (Simulation time: 0 hr 0 min 39 sec) 
Heartbeat CPU  0 instructions:   39000003 cycles:   16753258 heartbeat IPC: 2.45861 cumulative IPC: 2.32791 (Simulation time: 0 hr 0 min 40 sec) 
Heartbeat CPU  0 instructions:   40000000 cycles:   17119133 heartbeat IPC: 2.73317 cumulative IPC: 2.33657 (Simulation time: 0 hr 0 min 41 sec) 
Heartbeat CPU  0 instructions:   41000003 cycles:   17538941 heartbeat IPC: 2.38205 cumulative IPC: 2.33766 (Simulation time: 0 hr 0 min 42 sec) 
Heartbeat CPU  0 instructions:   42000000 cycles:   17996779 heartbeat IPC: 2.18417 cumulative IPC: 2.33375 (Simulation time: 0 hr 0 min 43 sec) 
Heartbeat CPU  0 instructions:   43000001 cycles:   18452674 heartbeat IPC: 2.19349 cumulative IPC: 2.33029 (Simulation time: 0 hr 0 min 44 sec) 
Heartbeat CPU  0 instructions:   44000000 cycles:   18942806 heartbeat IPC: 2.04026 cumulative IPC: 2.32278 (Simulation time: 0 hr 0 min 45 sec) 
Heartbeat CPU  0 instructions:   45000002 cycles:   19354550 heartbeat IPC: 2.42870 cumulative IPC: 2.32503 (Simulation time: 0 hr 0 min 46 sec) 
Heartbeat CPU  0 instructions:   46000000 cycles:   19720555 heartbeat IPC: 2.73220 cumulative IPC: 2.33259 (Simulation time: 0 hr 0 min 47 sec) 
Heartbeat CPU  0 instructions:   47000002 cycles:   20133165 heartbeat IPC: 2.42360 cumulative IPC: 2.33446 (Simulation time: 0 hr 0 min 48 sec) 
Heartbeat CPU  0 instructions:   48000000 cycles:   20592679 heartbeat IPC: 2.17621 cumulative IPC: 2.33093 (Simulation time: 0 hr 0 min 49 sec) 
Heartbeat CPU  0 instructions:   49000003 cycles:   21048987 heartbeat IPC: 2.19151 cumulative IPC: 2.32790 (Simulation time: 0 hr 0 min 50 sec) 
Heartbeat CPU  0 instructions:   50000003 cycles:   21559476 heartbeat IPC: 1.95891 cumulative IPC: 2.31917 (Simulation time: 0 hr 0 min 51 sec) 
Heartbeat CPU  0 instructions:   51000002 cycles:   22021749 heartbeat IPC: 2.16322 cumulative IPC: 2.31589 (Simulation time: 0 hr 0 min 52 sec) 
Heartbeat CPU  0 instructions:   52000000 cycles:   22393745 heartbeat IPC: 2.68820 cumulative IPC: 2.32208 (Simulation time: 0 hr 0 min 53 sec) 
Heartbeat CPU  0 instructions:   53000001 cycles:   22759782 heartbeat IPC: 2.73197 cumulative IPC: 2.32867 (Simulation time: 0 hr 0 min 54 sec) 
Heartbeat CPU  0 instructions:   54000001 cycles:   23209405 heartbeat IPC: 2.22409 cumulative IPC: 2.32664 (Simulation time: 0 hr 0 min 55 sec) 
Heartbeat CPU  0 instructions:   55000001 cycles:   23662858 heartbeat IPC: 2.20530 cumulative IPC: 2.32432 (Simulation time: 0 hr 0 min 56 sec) 
Heartbeat CPU  0 instructions:   56000000 cycles:   24119362 heartbeat IPC: 2.19056 cumulative IPC: 2.32179 (Simulation time: 0 hr 0 min 57 sec) 
Heartbeat CPU  0 instructions:   57000003 cycles:   24604806 heartbeat IPC: 2.05998 cumulative IPC: 2.31662 (Simulation time: 0 hr 0 min 58 sec) 
Heartbeat CPU  0 instructions:   58000001 cycles:   24997415 heartbeat IPC: 2.54706 cumulative IPC: 2.32024 (Simulation time: 0 hr 0 min 59 sec) 
Heartbeat CPU  0 instructions:   59000001 cycles:   25363381 heartbeat IPC: 2.73249 cumulative IPC: 2.32619 (Simulation time: 0 hr 1 min 1 sec) 
Heartbeat CPU  0 instructions:   60000000 cycles:   25802646 heartbeat IPC: 2.27653 cumulative IPC: 2.32534 (Simulation time: 0 hr 1 min 2 sec) 
Heartbeat CPU  0 instructions:   61000000 cycles:   26258316 heartbeat IPC: 2.19457 cumulative IPC: 2.32307 (Simulation time: 0 hr 1 min 3 sec) 
Heartbeat CPU  0 instructions:   62000000 cycles:   26715683 heartbeat IPC: 2.18643 cumulative IPC: 2.32073 (Simulation time: 0 hr 1 min 4 sec) 
Heartbeat CPU  0 instructions:   63000000 cycles:   27203047 heartbeat IPC: 2.05185 cumulative IPC: 2.31592 (Simulation time: 0 hr 1 min 5 sec) 
Heartbeat CPU  0 instructions:   64000000 cycles:   27604459 heartbeat IPC: 2.49121 cumulative IPC: 2.31847 (Simulation time: 0 hr 1 min 6 sec) 
Heartbeat CPU  0 instructions:   65000000 cycles:   27970450 heartbeat IPC: 2.73231 cumulative IPC: 2.32388 (Simulation time: 0 hr 1 min 7 sec) 
Heartbeat CPU  0 instructions:   66000001 cycles:   28395315 heartbeat IPC: 2.35369 cumulative IPC: 2.32433 (Simulation time: 0 hr 1 min 8 sec) 
Heartbeat CPU  0 instructions:   67000003 cycles:   28854945 heartbeat IPC: 2.17567 cumulative IPC: 2.32196 (Simulation time: 0 hr 1 min 9 sec) 
Heartbeat CPU  0 instructions:   68000000 cycles:   29308719 heartbeat IPC: 2.20373 cumulative IPC: 2.32013 (Simulation time: 0 hr 1 min 10 sec) 
Heartbeat CPU  0 instructions:   69000001 cycles:   29795692 heartbeat IPC: 2.05350 cumulative IPC: 2.31577 (Simulation time: 0 hr 1 min 11 sec) 
Heartbeat CPU  0 instructions:   70000001 cycles:   30204323 heartbeat IPC: 2.44720 cumulative IPC: 2.31755 (Simulation time: 0 hr 1 min 12 sec) 
Heartbeat CPU  0 instructions:   71000001 cycles:   30570264 heartbeat IPC: 2.73268 cumulative IPC: 2.32252 (Simulation time: 0 hr 1 min 13 sec) 
Heartbeat CPU  0 instructions:   72000000 cycles:   30985583 heartbeat IPC: 2.40779 cumulative IPC: 2.32366 (Simulation time: 0 hr 1 min 14 sec) 
Heartbeat CPU  0 instructions:   73000000 cycles:   31442370 heartbeat IPC: 2.18920 cumulative IPC: 2.32171 (Simulation time: 0 hr 1 min 15 sec) 
Heartbeat CPU  0 instructions:   74000002 cycles:   31897584 heartbeat IPC: 2.19677 cumulative IPC: 2.31993 (Simulation time: 0 hr 1 min 16 sec) 
Heartbeat CPU  0 instructions:   75000002 cycles:   32385994 heartbeat IPC: 2.04746 cumulative IPC: 2.31582 (Simulation time: 0 hr 1 min 17 sec) 
Heartbeat CPU  0 instructions:   76000000 cycles:   32804303 heartbeat IPC: 2.39057 cumulative IPC: 2.31677 (Simulation time: 0 hr 1 min 18 sec) 
Heartbeat CPU  0 instructions:   77000003 cycles:   33170326 heartbeat IPC: 2.73208 cumulative IPC: 2.32135 (Simulation time: 0 hr 1 min 19 sec) 
Heartbeat CPU  0 instructions:   78000002 cycles:   33578041 heartbeat IPC: 2.45269 cumulative IPC: 2.32295 (Simulation time: 0 hr 1 min 20 sec) 
Heartbeat CPU  0 instructions:   79000000 cycles:   34033471 heartbeat IPC: 2.19572 cumulative IPC: 2.32124 (Simulation time: 0 hr 1 min 21 sec) 
Heartbeat CPU  0 instructions:   80000000 cycles:   34490185 heartbeat IPC: 2.18955 cumulative IPC: 2.31950 (Simulation time: 0 hr 1 min 22 sec) 
Heartbeat CPU  0 instructions:   81000001 cycles:   34948630 heartbeat IPC: 2.18129 cumulative IPC: 2.31769 (Simulation time: 0 hr 1 min 23 sec) 
Heartbeat CPU  0 instructions:   82000001 cycles:   35435781 heartbeat IPC: 2.05275 cumulative IPC: 2.31405 (Simulation time: 0 hr 1 min 24 sec) 
Heartbeat CPU  0 instructions:   83000001 cycles:   35806038 heartbeat IPC: 2.70083 cumulative IPC: 2.31804 (Simulation time: 0 hr 1 min 25 sec) 
Heartbeat CPU  0 instructions:   84000000 cycles:   36172970 heartbeat IPC: 2.72530 cumulative IPC: 2.32218 (Simulation time: 0 hr 1 min 26 sec) 
Heartbeat CPU  0 instructions:   85000003 cycles:   36628794 heartbeat IPC: 2.19384 cumulative IPC: 2.32058 (Simulation time: 0 hr 1 min 27 sec) 
Heartbeat CPU  0 instructions:   86000001 cycles:   37084185 heartbeat IPC: 2.19591 cumulative IPC: 2.31905 (Simulation time: 0 hr 1 min 28 sec) 
Heartbeat CPU  0 instructions:   87000003 cycles:   37541019 heartbeat IPC: 2.18898 cumulative IPC: 2.31747 (Simulation time: 0 hr 1 min 29 sec) 
Heartbeat CPU  0 instructions:   88000000 cycles:   38030563 heartbeat IPC: 2.04271 cumulative IPC: 2.31393 (Simulation time: 0 hr 1 min 30 sec) 
Heartbeat CPU  0 instructions:   89000002 cycles:   38433209 heartbeat IPC: 2.48358 cumulative IPC: 2.31571 (Simulation time: 0 hr 1 min 31 sec) 
Heartbeat CPU  0 instructions:   90000002 cycles:   38799099 heartbeat IPC: 2.73306 cumulative IPC: 2.31964 (Simulation time: 0 hr 1 min 32 sec) 
Heartbeat CPU  0 instructions:   91000002 cycles:   39219637 heartbeat IPC: 2.37791 cumulative IPC: 2.32027 (Simulation time: 0 hr 1 min 33 sec) 
Heartbeat CPU  0 instructions:   92000000 cycles:   39672990 heartbeat IPC: 2.20578 cumulative IPC: 2.31896 (Simulation time: 0 hr 1 min 34 sec) 
Heartbeat CPU  0 instructions:   93000002 cycles:   40129305 heartbeat IPC: 2.19147 cumulative IPC: 2.31751 (Simulation time: 0 hr 1 min 35 sec) 
Heartbeat CPU  0 instructions:   94000001 cycles:   40617923 heartbeat IPC: 2.04659 cumulative IPC: 2.31425 (Simulation time: 0 hr 1 min 36 sec) 
Heartbeat CPU  0 instructions:   95000003 cycles:   40989274 heartbeat IPC: 2.69288 cumulative IPC: 2.31768 (Simulation time: 0 hr 1 min 37 sec) 
Heartbeat CPU  0 instructions:   96000000 cycles:   41355270 heartbeat IPC: 2.73226 cumulative IPC: 2.32135 (Simulation time: 0 hr 1 min 38 sec) 
Heartbeat CPU  0 instructions:   97000001 cycles:   41801316 heartbeat IPC: 2.24192 cumulative IPC: 2.32050 (Simulation time: 0 hr 1 min 39 sec) 
Heartbeat CPU  0 instructions:   98000002 cycles:   42257454 heartbeat IPC: 2.19232 cumulative IPC: 2.31912 (Simulation time: 0 hr 1 min 40 sec) 
Heartbeat CPU  0 instructions:   99000003 cycles:   42743313 heartbeat IPC: 2.05821 cumulative IPC: 2.31615 (Simulation time: 0 hr 1 min 41 sec) 
Heartbeat CPU  0 instructions:  100000000 cycles:   43287511 heartbeat IPC: 1.83756 cumulative IPC: 2.31014 (Simulation time: 0 hr 1 min 42 sec) 

Warmup complete CPU  0 instructions:  100000001 cycles:   43287512 (Simulation time: 0 hr 1 min 42 sec) 

Heartbeat CPU  0 instructions:  101000000 cycles:   44389719 heartbeat IPC: 0.90727 cumulative IPC: 0.90727 (Simulation time: 0 hr 1 min 44 sec) 
Heartbeat CPU  0 instructions:  102000003 cycles:   45963868 heartbeat IPC: 0.63527 cumulative IPC: 0.74729 (Simulation time: 0 hr 1 min 45 sec) 
Heartbeat CPU  0 instructions:  103000000 cycles:   47569191 heartbeat IPC: 0.62293 cumulative IPC: 0.70066 (Simulation time: 0 hr 1 min 47 sec) 
Heartbeat CPU  0 instructions:  104000000 cycles:   49143492 heartbeat IPC: 0.63520 cumulative IPC: 0.68306 (Simulation time: 0 hr 1 min 48 sec) 
Heartbeat CPU  0 instructions:  105000000 cycles:   50365646 heartbeat IPC: 0.81823 cumulative IPC: 0.70640 (Simulation time: 0 hr 1 min 49 sec) 
Heartbeat CPU  0 instructions:  106000002 cycles:   51568222 heartbeat IPC: 0.83155 cumulative IPC: 0.72458 (Simulation time: 0 hr 1 min 51 sec) 
Heartbeat CPU  0 instructions:  107000003 cycles:   52991658 heartbeat IPC: 0.70253 cumulative IPC: 0.72134 (Simulation time: 0 hr 1 min 52 sec) 
Heartbeat CPU  0 instructions:  108000000 cycles:   54649559 heartbeat IPC: 0.60317 cumulative IPC: 0.70410 (Simulation time: 0 hr 1 min 54 sec) 
Heartbeat CPU  0 instructions:  109000000 cycles:   55999206 heartbeat IPC: 0.74093 cumulative IPC: 0.70801 (Simulation time: 0 hr 1 min 55 sec) 
Heartbeat CPU  0 instructions:  110000002 cycles:   57003357 heartbeat IPC: 0.99587 cumulative IPC: 0.72908 (Simulation time: 0 hr 1 min 56 sec) 
Heartbeat CPU  0 instructions:  111000002 cycles:   58369963 heartbeat IPC: 0.73174 cumulative IPC: 0.72932 (Simulation time: 0 hr 1 min 58 sec) 
Heartbeat CPU  0 instructions:  112000000 cycles:   59938886 heartbeat IPC: 0.63738 cumulative IPC: 0.72066 (Simulation time: 0 hr 1 min 59 sec) 
Heartbeat CPU  0 instructions:  113000002 cycles:   61431643 heartbeat IPC: 0.66990 cumulative IPC: 0.71649 (Simulation time: 0 hr 2 min 1 sec) 
Heartbeat CPU  0 instructions:  114000001 cycles:   62606127 heartbeat IPC: 0.85144 cumulative IPC: 0.72469 (Simulation time: 0 hr 2 min 2 sec) 
Heartbeat CPU  0 instructions:  115000000 cycles:   63966847 heartbeat IPC: 0.73490 cumulative IPC: 0.72536 (Simulation time: 0 hr 2 min 3 sec) 
Heartbeat CPU  0 instructions:  116000000 cycles:   65365600 heartbeat IPC: 0.71492 cumulative IPC: 0.72470 (Simulation time: 0 hr 2 min 5 sec) 
Heartbeat CPU  0 instructions:  117000000 cycles:   67126420 heartbeat IPC: 0.56792 cumulative IPC: 0.71312 (Simulation time: 0 hr 2 min 6 sec) 
Heartbeat CPU  0 instructions:  118000003 cycles:   68835116 heartbeat IPC: 0.58524 cumulative IPC: 0.70457 (Simulation time: 0 hr 2 min 7 sec) 
Heartbeat CPU  0 instructions:  119000002 cycles:   70504412 heartbeat IPC: 0.59905 cumulative IPC: 0.69810 (Simulation time: 0 hr 2 min 9 sec) 
Heartbeat CPU  0 instructions:  120000000 cycles:   72137491 heartbeat IPC: 0.61234 cumulative IPC: 0.69324 (Simulation time: 0 hr 2 min 10 sec) 
Heartbeat CPU  0 instructions:  121000000 cycles:   73220670 heartbeat IPC: 0.92321 cumulative IPC: 0.70156 (Simulation time: 0 hr 2 min 12 sec) 
Heartbeat CPU  0 instructions:  122000001 cycles:   74569509 heartbeat IPC: 0.74138 cumulative IPC: 0.70328 (Simulation time: 0 hr 2 min 13 sec) 
Heartbeat CPU  0 instructions:  123000001 cycles:   76123268 heartbeat IPC: 0.64360 cumulative IPC: 0.70046 (Simulation time: 0 hr 2 min 14 sec) 
Heartbeat CPU  0 instructions:  124000000 cycles:   77897835 heartbeat IPC: 0.56352 cumulative IPC: 0.69343 (Simulation time: 0 hr 2 min 16 sec) 
Heartbeat CPU  0 instructions:  125000001 cycles:   79533538 heartbeat IPC: 0.61136 cumulative IPC: 0.68973 (Simulation time: 0 hr 2 min 17 sec) 
Heartbeat CPU  0 instructions:  126000003 cycles:   81135345 heartbeat IPC: 0.62430 cumulative IPC: 0.68696 (Simulation time: 0 hr 2 min 19 sec) 
Heartbeat CPU  0 instructions:  127000000 cycles:   82292992 heartbeat IPC: 0.86382 cumulative IPC: 0.69221 (Simulation time: 0 hr 2 min 20 sec) 
Heartbeat CPU  0 instructions:  128000000 cycles:   83565723 heartbeat IPC: 0.78571 cumulative IPC: 0.69516 (Simulation time: 0 hr 2 min 21 sec) 
Heartbeat CPU  0 instructions:  129000000 cycles:   84985017 heartbeat IPC: 0.70458 cumulative IPC: 0.69549 (Simulation time: 0 hr 2 min 23 sec) 
Heartbeat CPU  0 instructions:  130000002 cycles:   86724333 heartbeat IPC: 0.57494 cumulative IPC: 0.69066 (Simulation time: 0 hr 2 min 24 sec) 
Heartbeat CPU  0 instructions:  131000002 cycles:   88269387 heartbeat IPC: 0.64723 cumulative IPC: 0.68917 (Simulation time: 0 hr 2 min 26 sec) 
Heartbeat CPU  0 instructions:  132000000 cycles:   89714086 heartbeat IPC: 0.69218 cumulative IPC: 0.68926 (Simulation time: 0 hr 2 min 27 sec) 
Heartbeat CPU  0 instructions:  133000002 cycles:   90781311 heartbeat IPC: 0.93701 cumulative IPC: 0.69483 (Simulation time: 0 hr 2 min 28 sec) 
Heartbeat CPU  0 instructions:  134000000 cycles:   92145516 heartbeat IPC: 0.73303 cumulative IPC: 0.69589 (Simulation time: 0 hr 2 min 30 sec) 
Heartbeat CPU  0 instructions:  135000001 cycles:   93696615 heartbeat IPC: 0.64470 cumulative IPC: 0.69432 (Simulation time: 0 hr 2 min 31 sec) 
Heartbeat CPU  0 instructions:  136000000 cycles:   95226708 heartbeat IPC: 0.65355 cumulative IPC: 0.69312 (Simulation time: 0 hr 2 min 32 sec) 
Heartbeat CPU  0 instructions:  137000002 cycles:   96526551 heartbeat IPC: 0.76933 cumulative IPC: 0.69498 (Simulation time: 0 hr 2 min 34 sec) 
Heartbeat CPU  0 instructions:  138000002 cycles:   97624749 heartbeat IPC: 0.91058 cumulative IPC: 0.69934 (Simulation time: 0 hr 2 min 35 sec) 
Heartbeat CPU  0 instructions:  139000001 cycles:   98970733 heartbeat IPC: 0.74295 cumulative IPC: 0.70039 (Simulation time: 0 hr 2 min 36 sec) 
Heartbeat CPU  0 instructions:  140000000 cycles:  100528210 heartbeat IPC: 0.64206 cumulative IPC: 0.69880 (Simulation time: 0 hr 2 min 38 sec) 
Heartbeat CPU  0 instructions:  141000000 cycles:  101968687 heartbeat IPC: 0.69421 cumulative IPC: 0.69869 (Simulation time: 0 hr 2 min 39 sec) 
Heartbeat CPU  0 instructions:  142000001 cycles:  103189314 heartbeat IPC: 0.81925 cumulative IPC: 0.70115 (Simulation time: 0 hr 2 min 40 sec) 
Heartbeat CPU  0 instructions:  143000003 cycles:  104332761 heartbeat IPC: 0.87455 cumulative IPC: 0.70440 (Simulation time: 0 hr 2 min 42 sec) 
Heartbeat CPU  0 instructions:  144000000 cycles:  105681446 heartbeat IPC: 0.74146 cumulative IPC: 0.70520 (Simulation time: 0 hr 2 min 43 sec) 
Heartbeat CPU  0 instructions:  145000002 cycles:  107273193 heartbeat IPC: 0.62824 cumulative IPC: 0.70328 (Simulation time: 0 hr 2 min 45 sec) 
Heartbeat CPU  0 instructions:  146000002 cycles:  108658834 heartbeat IPC: 0.72169 cumulative IPC: 0.70367 (Simulation time: 0 hr 2 min 46 sec) 
Heartbeat CPU  0 instructions:  147000002 cycles:  109660493 heartbeat IPC: 0.99834 cumulative IPC: 0.70812 (Simulation time: 0 hr 2 min 47 sec) 
Heartbeat CPU  0 instructions:  148000000 cycles:  110946459 heartbeat IPC: 0.77762 cumulative IPC: 0.70944 (Simulation time: 0 hr 2 min 49 sec) 
Heartbeat CPU  0 instructions:  149000000 cycles:  112379081 heartbeat IPC: 0.69802 cumulative IPC: 0.70920 (Simulation time: 0 hr 2 min 50 sec) 
Heartbeat CPU  0 instructions:  150000003 cycles:  113901814 heartbeat IPC: 0.65672 cumulative IPC: 0.70807 (Simulation time: 0 hr 2 min 51 sec) 
Heartbeat CPU  0 instructions:  151000002 cycles:  115222083 heartbeat IPC: 0.75742 cumulative IPC: 0.70898 (Simulation time: 0 hr 2 min 53 sec) 
Heartbeat CPU  0 instructions:  152000000 cycles:  116155613 heartbeat IPC: 1.07120 cumulative IPC: 0.71362 (Simulation time: 0 hr 2 min 54 sec) 
Heartbeat CPU  0 instructions:  153000001 cycles:  117195168 heartbeat IPC: 0.96195 cumulative IPC: 0.71711 (Simulation time: 0 hr 2 min 55 sec) 
Heartbeat CPU  0 instructions:  154000003 cycles:  118545149 heartbeat IPC: 0.74075 cumulative IPC: 0.71754 (Simulation time: 0 hr 2 min 57 sec) 
Heartbeat CPU  0 instructions:  155000003 cycles:  120068694 heartbeat IPC: 0.65636 cumulative IPC: 0.71632 (Simulation time: 0 hr 2 min 58 sec) 
Heartbeat CPU  0 instructions:  156000000 cycles:  121476633 heartbeat IPC: 0.71026 cumulative IPC: 0.71621 (Simulation time: 0 hr 2 min 59 sec) 
Heartbeat CPU  0 instructions:  157000003 cycles:  122610094 heartbeat IPC: 0.88226 cumulative IPC: 0.71858 (Simulation time: 0 hr 3 min 1 sec) 
Heartbeat CPU  0 instructions:  158000003 cycles:  123796121 heartbeat IPC: 0.84315 cumulative IPC: 0.72042 (Simulation time: 0 hr 3 min 2 sec) 
Heartbeat CPU  0 instructions:  159000001 cycles:  125138778 heartbeat IPC: 0.74479 cumulative IPC: 0.72082 (Simulation time: 0 hr 3 min 3 sec) 
Heartbeat CPU  0 instructions:  160000000 cycles:  126702483 heartbeat IPC: 0.63951 cumulative IPC: 0.71930 (Simulation time: 0 hr 3 min 5 sec) 
Heartbeat CPU  0 instructions:  161000000 cycles:  127981920 heartbeat IPC: 0.78159 cumulative IPC: 0.72024 (Simulation time: 0 hr 3 min 6 sec) 
Heartbeat CPU  0 instructions:  162000003 cycles:  128986330 heartbeat IPC: 0.99561 cumulative IPC: 0.72346 (Simulation time: 0 hr 3 min 7 sec) 
Heartbeat CPU  0 instructions:  163000003 cycles:  130298448 heartbeat IPC: 0.76213 cumulative IPC: 0.72405 (Simulation time: 0 hr 3 min 9 sec) 
Heartbeat CPU  0 instructions:  164000000 cycles:  131790452 heartbeat IPC: 0.67024 cumulative IPC: 0.72314 (Simulation time: 0 hr 3 min 10 sec) 
Heartbeat CPU  0 instructions:  165000000 cycles:  133180948 heartbeat IPC: 0.71917 cumulative IPC: 0.72308 (Simulation time: 0 hr 3 min 11 sec) 
Heartbeat CPU  0 instructions:  166000002 cycles:  134309934 heartbeat IPC: 0.88575 cumulative IPC: 0.72510 (Simulation time: 0 hr 3 min 13 sec) 
Heartbeat CPU  0 instructions:  167000001 cycles:  135466646 heartbeat IPC: 0.86452 cumulative IPC: 0.72685 (Simulation time: 0 hr 3 min 14 sec) 
Heartbeat CPU  0 instructions:  168000000 cycles:  136792271 heartbeat IPC: 0.75436 cumulative IPC: 0.72724 (Simulation time: 0 hr 3 min 16 sec) 
Heartbeat CPU  0 instructions:  169000000 cycles:  138348379 heartbeat IPC: 0.64263 cumulative IPC: 0.72585 (Simulation time: 0 hr 3 min 17 sec) 
Heartbeat CPU  0 instructions:  170000002 cycles:  139630412 heartbeat IPC: 0.78001 cumulative IPC: 0.72657 (Simulation time: 0 hr 3 min 18 sec) 
Heartbeat CPU  0 instructions:  171000003 cycles:  140637900 heartbeat IPC: 0.99257 cumulative IPC: 0.72932 (Simulation time: 0 hr 3 min 19 sec) 
Heartbeat CPU  0 instructions:  172000000 cycles:  141938711 heartbeat IPC: 0.76875 cumulative IPC: 0.72984 (Simulation time: 0 hr 3 min 21 sec) 
Heartbeat CPU  0 instructions:  173000000 cycles:  143420438 heartbeat IPC: 0.67489 cumulative IPC: 0.72903 (Simulation time: 0 hr 3 min 22 sec) 
Heartbeat CPU  0 instructions:  174000000 cycles:  144815473 heartbeat IPC: 0.71683 cumulative IPC: 0.72886 (Simulation time: 0 hr 3 min 24 sec) 
Heartbeat CPU  0 instructions:  175000002 cycles:  145966734 heartbeat IPC: 0.86861 cumulative IPC: 0.73043 (Simulation time: 0 hr 3 min 25 sec) 
Heartbeat CPU  0 instructions:  176000000 cycles:  147109865 heartbeat IPC: 0.87479 cumulative IPC: 0.73202 (Simulation time: 0 hr 3 min 26 sec) 
Heartbeat CPU  0 instructions:  177000003 cycles:  148426416 heartbeat IPC: 0.75956 cumulative IPC: 0.73236 (Simulation time: 0 hr 3 min 28 sec) 
Heartbeat CPU  0 instructions:  178000003 cycles:  149976794 heartbeat IPC: 0.64500 cumulative IPC: 0.73110 (Simulation time: 0 hr 3 min 29 sec) 
Heartbeat CPU  0 instructions:  179000002 cycles:  151259273 heartbeat IPC: 0.77974 cumulative IPC: 0.73167 (Simulation time: 0 hr 3 min 30 sec) 
Heartbeat CPU  0 instructions:  180000000 cycles:  152250769 heartbeat IPC: 1.00857 cumulative IPC: 0.73419 (Simulation time: 0 hr 3 min 32 sec) 
Heartbeat CPU  0 instructions:  181000002 cycles:  153540041 heartbeat IPC: 0.77563 cumulative IPC: 0.73468 (Simulation time: 0 hr 3 min 33 sec) 
Heartbeat CPU  0 instructions:  182000003 cycles:  155004800 heartbeat IPC: 0.68271 cumulative IPC: 0.73400 (Simulation time: 0 hr 3 min 34 sec) 
Heartbeat CPU  0 instructions:  183000002 cycles:  156381989 heartbeat IPC: 0.72612 cumulative IPC: 0.73390 (Simulation time: 0 hr 3 min 36 sec) 
Heartbeat CPU  0 instructions:  184000000 cycles:  157543714 heartbeat IPC: 0.86079 cumulative IPC: 0.73519 (Simulation time: 0 hr 3 min 37 sec) 
Heartbeat CPU  0 instructions:  185000003 cycles:  158660114 heartbeat IPC: 0.89574 cumulative IPC: 0.73674 (Simulation time: 0 hr 3 min 38 sec) 
Heartbeat CPU  0 instructions:  186000001 cycles:  159959135 heartbeat IPC: 0.76981 cumulative IPC: 0.73711 (Simulation time: 0 hr 3 min 40 sec) 
Heartbeat CPU  0 instructions:  187000003 cycles:  161505455 heartbeat IPC: 0.64670 cumulative IPC: 0.73593 (Simulation time: 0 hr 3 min 41 sec) 
Heartbeat CPU  0 instructions:  188000000 cycles:  162784982 heartbeat IPC: 0.78154 cumulative IPC: 0.73642 (Simulation time: 0 hr 3 min 42 sec) 
Heartbeat CPU  0 instructions:  189000001 cycles:  163787548 heartbeat IPC: 0.99744 cumulative IPC: 0.73859 (Simulation time: 0 hr 3 min 44 sec) 
Heartbeat CPU  0 instructions:  190000001 cycles:  165073596 heartbeat IPC: 0.77758 cumulative IPC: 0.73900 (Simulation time: 0 hr 3 min 45 sec) 
Heartbeat CPU  0 instructions:  191000003 cycles:  166532312 heartbeat IPC: 0.68554 cumulative IPC: 0.73837 (Simulation time: 0 hr 3 min 46 sec) 
Heartbeat CPU  0 instructions:  192000000 cycles:  167911007 heartbeat IPC: 0.72532 cumulative IPC: 0.73822 (Simulation time: 0 hr 3 min 48 sec) 
Heartbeat CPU  0 instructions:  193000002 cycles:  169075426 heartbeat IPC: 0.85880 cumulative IPC: 0.73934 (Simulation time: 0 hr 3 min 49 sec) 
Heartbeat CPU  0 instructions:  194000002 cycles:  170195268 heartbeat IPC: 0.89298 cumulative IPC: 0.74070 (Simulation time: 0 hr 3 min 50 sec) 
Heartbeat CPU  0 instructions:  195000003 cycles:  171491506 heartbeat IPC: 0.77146 cumulative IPC: 0.74101 (Simulation time: 0 hr 3 min 52 sec) 
Heartbeat CPU  0 instructions:  196000000 cycles:  173035924 heartbeat IPC: 0.64749 cumulative IPC: 0.73989 (Simulation time: 0 hr 3 min 53 sec) 
Heartbeat CPU  0 instructions:  197000002 cycles:  174331966 heartbeat IPC: 0.77158 cumulative IPC: 0.74021 (Simulation time: 0 hr 3 min 54 sec) 
Heartbeat CPU  0 instructions:  198000001 cycles:  175309132 heartbeat IPC: 1.02337 cumulative IPC: 0.74230 (Simulation time: 0 hr 3 min 56 sec) 
Heartbeat CPU  0 instructions:  199000001 cycles:  176580060 heartbeat IPC: 0.78683 cumulative IPC: 0.74273 (Simulation time: 0 hr 3 min 57 sec) 
Heartbeat CPU  0 instructions:  200000000 cycles:  178029153 heartbeat IPC: 0.69009 cumulative IPC: 0.74216 (Simulation time: 0 hr 3 min 58 sec) 
Finished CPU 0 instructions: 100000003 cycles: 134741649 cumulative IPC: 0.74216 (Simulation time: 0 hr 3 min 58 sec) 

ChampSim completed all CPUs

[ROI Statistics]
Core_0_instructions 100000003
Core_0_cycles 134741649
Core_0_IPC 0.74216

Core_0_branch_prediction_accuracy 97.76309
Core_0_branch_MPKI 1.93474
Core_0_average_ROB_occupancy_at_mispredict 147.11601

Core_0_L1D_total_access 14646864
Core_0_L1D_total_hit 13222147
Core_0_L1D_total_miss 1424717
Core_0_L1D_loads 13273985
Core_0_L1D_load_hit 11938868
Core_0_L1D_load_miss 1335117
Core_0_L1D_RFOs 1372879
Core_0_L1D_RFO_hit 1283279
Core_0_L1D_RFO_miss 89600
Core_0_L1D_prefetches 0
Core_0_L1D_prefetch_hit 0
Core_0_L1D_prefetch_miss 0
Core_0_L1D_writebacks 0
Core_0_L1D_writeback_hit 0
Core_0_L1D_writeback_miss 0
Core_0_L1D_prefetch_requested 0
Core_0_L1D_prefetch_issued 0
Core_0_L1D_prefetch_useful 0
Core_0_L1D_prefetch_useless 0
Core_0_L1D_prefetch_late 0
Core_0_L1D_average_miss_latency 94.36470

Core_0_L1I_total_access 24542737
Core_0_L1I_total_hit 24542436
Core_0_L1I_total_miss 301
Core_0_L1I_loads 24542737
Core_0_L1I_load_hit 24542436
Core_0_L1I_load_miss 301
Core_0_L1I_RFOs 0
Core_0_L1I_RFO_hit 0
Core_0_L1I_RFO_miss 0
Core_0_L1I_prefetches 0
Core_0_L1I_prefetch_hit 0
Core_0_L1I_prefetch_miss 0
Core_0_L1I_writebacks 0
Core_0_L1I_writeback_hit 0
Core_0_L1I_writeback_miss 0
Core_0_L1I_prefetch_requested 0
Core_0_L1I_prefetch_issued 0
Core_0_L1I_prefetch_useful 0
Core_0_L1I_prefetch_useless 0
Core_0_L1I_prefetch_late 0
Core_0_L1I_average_miss_latency 242.53821

Core_0_L2C_total_access 1535563
Core_0_L2C_total_hit 310764
Core_0_L2C_total_miss 1224799
Core_0_L2C_loads 1335414
Core_0_L2C_load_hit 192398
Core_0_L2C_load_miss 1143016
Core_0_L2C_RFOs 89599
Core_0_L2C_RFO_hit 8051
Core_0_L2C_RFO_miss 81548
Core_0_L2C_prefetches 0
Core_0_L2C_prefetch_hit 0
Core_0_L2C_prefetch_miss 0
Core_0_L2C_writebacks 110550
Core_0_L2C_writeback_hit 110315
Core_0_L2C_writeback_miss 235
Core_0_L2C_prefetch_requested 0
Core_0_L2C_prefetch_issued 0
Core_0_L2C_prefetch_useful 0
Core_0_L2C_prefetch_useless 0
Core_0_L2C_prefetch_late 0
Core_0_L2C_average_miss_latency 92.81274

Core_0_LLC_total_access 1329599
Core_0_LLC_total_hit 677191
Core_0_LLC_total_miss 652408
Core_0_LLC_loads 1143016
Core_0_LLC_load_hit 515050
Core_0_LLC_load_miss 627966
Core_0_LLC_RFOs 81548
Core_0_LLC_RFO_hit 72358
Core_0_LLC_RFO_miss 9190
Core_0_LLC_prefetches 0
Core_0_LLC_prefetch_hit 0
Core_0_LLC_prefetch_miss 0
Core_0_LLC_writebacks 105035
Core_0_LLC_writeback_hit 89783
Core_0_LLC_writeback_miss 15252
Core_0_LLC_prefetch_requested 0
Core_0_LLC_prefetch_issued 0
Core_0_LLC_prefetch_useful 0
Core_0_LLC_prefetch_useless 0
Core_0_LLC_prefetch_late 0
Core_0_LLC_average_miss_latency 116.86927

Core_0_major_page_fault 0
Core_0_minor_page_fault 3151

Channel_0_RQ_row_buffer_hit 462277
Channel_0_RQ_row_buffer_miss 174879
Channel_0_WQ_row_buffer_hit 10254
Channel_0_WQ_row_buffer_miss 12151
Channel_0_WQ_full 0
Channel_0_dbus_congested 44837

avg_congested_cycle 8
