*************************************************
   ChampSim Multicore Out-of-Order Simulator
   Last compiled: Dec 25 2023 15:25:29
*************************************************

trace_0 ./test_trace/459.GemsFDTD-1320B.champsimtrace.xz
CPU 0 L1D next line prefetcher
Initialize DRRIP state
Assign rand_sets[0]: 454  LLC: 2048
rand_sets[0]: 454
Assign rand_sets[1]: 1662  LLC: 2048
rand_sets[1]: 1662
Assign rand_sets[2]: 1921  LLC: 2048
rand_sets[2]: 1921
Assign rand_sets[3]: 1131  LLC: 2048
rand_sets[3]: 1131
Assign rand_sets[4]: 331  LLC: 2048
rand_sets[4]: 331
Assign rand_sets[5]: 1531  LLC: 2048
rand_sets[5]: 1531
Assign rand_sets[6]: 482  LLC: 2048
rand_sets[6]: 482
Assign rand_sets[7]: 1275  LLC: 2048
rand_sets[7]: 1275
Assign rand_sets[8]: 1876  LLC: 2048
rand_sets[8]: 1876
Assign rand_sets[9]: 2038  LLC: 2048
rand_sets[9]: 2038
Assign rand_sets[10]: 701  LLC: 2048
rand_sets[10]: 701
Assign rand_sets[11]: 479  LLC: 2048
rand_sets[11]: 479
Assign rand_sets[12]: 892  LLC: 2048
rand_sets[12]: 892
Assign rand_sets[13]: 1820  LLC: 2048
rand_sets[13]: 1820
Assign rand_sets[14]: 1505  LLC: 2048
rand_sets[14]: 1505
Assign rand_sets[15]: 1159  LLC: 2048
rand_sets[15]: 1159
Assign rand_sets[16]: 513  LLC: 2048
rand_sets[16]: 513
Assign rand_sets[17]: 703  LLC: 2048
rand_sets[17]: 703
Assign rand_sets[18]: 561  LLC: 2048
rand_sets[18]: 561
Assign rand_sets[19]: 990  LLC: 2048
rand_sets[19]: 990
Assign rand_sets[20]: 342  LLC: 2048
rand_sets[20]: 342
Assign rand_sets[21]: 882  LLC: 2048
rand_sets[21]: 882
Assign rand_sets[22]: 15  LLC: 2048
rand_sets[22]: 15
Assign rand_sets[23]: 71  LLC: 2048
rand_sets[23]: 71
Assign rand_sets[24]: 1127  LLC: 2048
rand_sets[24]: 1127
Assign rand_sets[25]: 1382  LLC: 2048
rand_sets[25]: 1382
Assign rand_sets[26]: 647  LLC: 2048
rand_sets[26]: 647
Assign rand_sets[27]: 857  LLC: 2048
rand_sets[27]: 857
Assign rand_sets[28]: 1450  LLC: 2048
rand_sets[28]: 1450
Assign rand_sets[29]: 1160  LLC: 2048
rand_sets[29]: 1160
Assign rand_sets[30]: 1852  LLC: 2048
rand_sets[30]: 1852
Assign rand_sets[31]: 1881  LLC: 2048
rand_sets[31]: 1881
Assign rand_sets[32]: 1770  LLC: 2048
rand_sets[32]: 1770
Assign rand_sets[33]: 1622  LLC: 2048
rand_sets[33]: 1622
Assign rand_sets[34]: 275  LLC: 2048
rand_sets[34]: 275
Assign rand_sets[35]: 635  LLC: 2048
rand_sets[35]: 635
Assign rand_sets[36]: 466  LLC: 2048
rand_sets[36]: 466
Assign rand_sets[37]: 1413  LLC: 2048
rand_sets[37]: 1413
Assign rand_sets[38]: 417  LLC: 2048
rand_sets[38]: 417
Assign rand_sets[39]: 472  LLC: 2048
rand_sets[39]: 472
Assign rand_sets[40]: 1340  LLC: 2048
rand_sets[40]: 1340
Assign rand_sets[41]: 852  LLC: 2048
rand_sets[41]: 852
Assign rand_sets[42]: 1365  LLC: 2048
rand_sets[42]: 1365
Assign rand_sets[43]: 47  LLC: 2048
rand_sets[43]: 47
Assign rand_sets[44]: 823  LLC: 2048
rand_sets[44]: 823
Assign rand_sets[45]: 686  LLC: 2048
rand_sets[45]: 686
Assign rand_sets[46]: 1637  LLC: 2048
rand_sets[46]: 1637
Assign rand_sets[47]: 1115  LLC: 2048
rand_sets[47]: 1115
Assign rand_sets[48]: 986  LLC: 2048
rand_sets[48]: 986
Assign rand_sets[49]: 258  LLC: 2048
rand_sets[49]: 258
Assign rand_sets[50]: 633  LLC: 2048
rand_sets[50]: 633
Assign rand_sets[51]: 920  LLC: 2048
rand_sets[51]: 920
Assign rand_sets[52]: 204  LLC: 2048
rand_sets[52]: 204
Assign rand_sets[53]: 227  LLC: 2048
rand_sets[53]: 227
Assign rand_sets[54]: 1818  LLC: 2048
rand_sets[54]: 1818
Assign rand_sets[55]: 886  LLC: 2048
rand_sets[55]: 886
Assign rand_sets[56]: 1422  LLC: 2048
rand_sets[56]: 1422
Assign rand_sets[57]: 607  LLC: 2048
rand_sets[57]: 607
Assign rand_sets[58]: 217  LLC: 2048
rand_sets[58]: 217
Assign rand_sets[59]: 1945  LLC: 2048
rand_sets[59]: 1945
Assign rand_sets[60]: 143  LLC: 2048
rand_sets[60]: 143
Assign rand_sets[61]: 1311  LLC: 2048
rand_sets[61]: 1311
Assign rand_sets[62]: 319  LLC: 2048
rand_sets[62]: 319
Assign rand_sets[63]: 1846  LLC: 2048
rand_sets[63]: 1846
LLC Next Line Prefetcher
warmup_instructions 100000000
simulation_instructions 100000000
champsim_seed 264

num_cpus 1
cpu_freq 4000
dram_io_freq 2400
page_size 4096
block_size 64
max_read_per_cycle 8
max_fill_per_cycle 1
dram_channels 1
dram_ranks 1
dram_banks 8
dram_rows 65536
dram_columns 128
dram_row_size 8
dram_size 4096
dram_pages 1048576

fetch_width 6
decode_width 6
exec_width 4
lq_width 2
sq_width 2
retire_width 4
scheduler_size 128
branch_mispredict_penalty 20
rob_size 256
lq_size 72
sq_size 56
num_instr_destinations_sparc 4
num_instr_destinations 2
num_instr_sources 4

itlb_set 16
itlb_way 8
itlb_rq_size 16
itlb_wq_size 16
itlb_pq_size 0
itlb_mshr_size 8
itlb_latency 1

dtlb_set 16
dtlb_way 4
dtlb_rq_size 16
dtlb_wq_size 16
dtlb_pq_size 0
dtlb_mshr_size 8
dtlb_latency 1

stlb_set 128
stlb_way 12
stlb_rq_size 32
stlb_wq_size 32
stlb_pq_size 0
stlb_mshr_size 16
stlb_latency 8

l1i_size 32
l1i_set 64
l1i_way 8
l1i_rq_size 64
l1i_wq_size 64
l1i_pq_size 8
l1i_mshr_size 8
l1i_latency 1

l1d_size 32
l1d_set 64
l1d_way 8
l1d_rq_size 64
l1d_wq_size 64
l1d_pq_size 8
l1d_mshr_size 16
l1d_latency 4

l2c_size 512
l2c_set 1024
l2c_way 8
l2c_rq_size 32
l2c_wq_size 32
l2c_pq_size 16
l2c_mshr_size 32
l2c_latency 10

llc_size 2048
llc_set 2048
llc_way 16
llc_rq_size 32
llc_wq_size 32
llc_pq_size 32
llc_mshr_size 64
llc_latency 20

dram_channel_width 8
dram_wq_size 64
dram_rq_size 64
tRP 15
tRCD 15
tCAS 12.5
dram_dbus_turn_around_time 30
dram_write_high_wm 56
dram_write_low_wm 48
min_dram_writes_per_switch 16
dram_mtps 2400
dram_dbus_return_time 13


Heartbeat CPU  0 instructions:    1000000 cycles:     673473 heartbeat IPC: 1.48484 cumulative IPC: 1.48484 (Simulation time: 0 hr 0 min 2 sec) 
Heartbeat CPU  0 instructions:    2000003 cycles:    1346310 heartbeat IPC: 1.48625 cumulative IPC: 1.48554 (Simulation time: 0 hr 0 min 3 sec) 
Heartbeat CPU  0 instructions:    3000002 cycles:    2019044 heartbeat IPC: 1.48647 cumulative IPC: 1.48585 (Simulation time: 0 hr 0 min 5 sec) 
Heartbeat CPU  0 instructions:    4000000 cycles:    2691901 heartbeat IPC: 1.48620 cumulative IPC: 1.48594 (Simulation time: 0 hr 0 min 7 sec) 
Heartbeat CPU  0 instructions:    5000001 cycles:    3364900 heartbeat IPC: 1.48589 cumulative IPC: 1.48593 (Simulation time: 0 hr 0 min 9 sec) 
Heartbeat CPU  0 instructions:    6000001 cycles:    4037214 heartbeat IPC: 1.48740 cumulative IPC: 1.48617 (Simulation time: 0 hr 0 min 11 sec) 
Heartbeat CPU  0 instructions:    7000001 cycles:    4709638 heartbeat IPC: 1.48716 cumulative IPC: 1.48631 (Simulation time: 0 hr 0 min 13 sec) 
Heartbeat CPU  0 instructions:    8000000 cycles:    5382219 heartbeat IPC: 1.48681 cumulative IPC: 1.48638 (Simulation time: 0 hr 0 min 15 sec) 
Heartbeat CPU  0 instructions:    9000003 cycles:    6054804 heartbeat IPC: 1.48681 cumulative IPC: 1.48642 (Simulation time: 0 hr 0 min 16 sec) 
Heartbeat CPU  0 instructions:   10000003 cycles:    6727479 heartbeat IPC: 1.48660 cumulative IPC: 1.48644 (Simulation time: 0 hr 0 min 18 sec) 
Heartbeat CPU  0 instructions:   11000003 cycles:    7400184 heartbeat IPC: 1.48654 cumulative IPC: 1.48645 (Simulation time: 0 hr 0 min 20 sec) 
Heartbeat CPU  0 instructions:   12000000 cycles:    8072707 heartbeat IPC: 1.48693 cumulative IPC: 1.48649 (Simulation time: 0 hr 0 min 22 sec) 
Heartbeat CPU  0 instructions:   13000000 cycles:    8750366 heartbeat IPC: 1.47567 cumulative IPC: 1.48565 (Simulation time: 0 hr 0 min 24 sec) 
Heartbeat CPU  0 instructions:   14000002 cycles:    9429337 heartbeat IPC: 1.47282 cumulative IPC: 1.48473 (Simulation time: 0 hr 0 min 25 sec) 
Heartbeat CPU  0 instructions:   15000000 cycles:   10108405 heartbeat IPC: 1.47260 cumulative IPC: 1.48391 (Simulation time: 0 hr 0 min 27 sec) 
Heartbeat CPU  0 instructions:   16000000 cycles:   10787431 heartbeat IPC: 1.47270 cumulative IPC: 1.48321 (Simulation time: 0 hr 0 min 29 sec) 
Heartbeat CPU  0 instructions:   17000002 cycles:   11466535 heartbeat IPC: 1.47253 cumulative IPC: 1.48258 (Simulation time: 0 hr 0 min 31 sec) 
Heartbeat CPU  0 instructions:   18000003 cycles:   12145551 heartbeat IPC: 1.47272 cumulative IPC: 1.48202 (Simulation time: 0 hr 0 min 33 sec) 
Heartbeat CPU  0 instructions:   19000003 cycles:   12824518 heartbeat IPC: 1.47283 cumulative IPC: 1.48154 (Simulation time: 0 hr 0 min 34 sec) 
Heartbeat CPU  0 instructions:   20000000 cycles:   13503617 heartbeat IPC: 1.47253 cumulative IPC: 1.48108 (Simulation time: 0 hr 0 min 36 sec) 
Heartbeat CPU  0 instructions:   21000002 cycles:   14182759 heartbeat IPC: 1.47245 cumulative IPC: 1.48067 (Simulation time: 0 hr 0 min 38 sec) 
Heartbeat CPU  0 instructions:   22000000 cycles:   14861774 heartbeat IPC: 1.47272 cumulative IPC: 1.48031 (Simulation time: 0 hr 0 min 40 sec) 
Heartbeat CPU  0 instructions:   23000000 cycles:   15540769 heartbeat IPC: 1.47276 cumulative IPC: 1.47998 (Simulation time: 0 hr 0 min 42 sec) 
Heartbeat CPU  0 instructions:   24000000 cycles:   16219863 heartbeat IPC: 1.47255 cumulative IPC: 1.47967 (Simulation time: 0 hr 0 min 43 sec) 
Heartbeat CPU  0 instructions:   25000001 cycles:   16898992 heartbeat IPC: 1.47248 cumulative IPC: 1.47938 (Simulation time: 0 hr 0 min 45 sec) 
Heartbeat CPU  0 instructions:   26000001 cycles:   17578038 heartbeat IPC: 1.47265 cumulative IPC: 1.47912 (Simulation time: 0 hr 0 min 47 sec) 
Heartbeat CPU  0 instructions:   27000001 cycles:   18257148 heartbeat IPC: 1.47252 cumulative IPC: 1.47887 (Simulation time: 0 hr 0 min 49 sec) 
Heartbeat CPU  0 instructions:   28000000 cycles:   18935481 heartbeat IPC: 1.47420 cumulative IPC: 1.47871 (Simulation time: 0 hr 0 min 51 sec) 
Heartbeat CPU  0 instructions:   29000002 cycles:   19612231 heartbeat IPC: 1.47765 cumulative IPC: 1.47867 (Simulation time: 0 hr 0 min 52 sec) 
Heartbeat CPU  0 instructions:   30000000 cycles:   20288916 heartbeat IPC: 1.47779 cumulative IPC: 1.47864 (Simulation time: 0 hr 0 min 54 sec) 
Heartbeat CPU  0 instructions:   31000000 cycles:   20965451 heartbeat IPC: 1.47812 cumulative IPC: 1.47862 (Simulation time: 0 hr 0 min 56 sec) 
Heartbeat CPU  0 instructions:   32000000 cycles:   21642011 heartbeat IPC: 1.47807 cumulative IPC: 1.47861 (Simulation time: 0 hr 0 min 58 sec) 
Heartbeat CPU  0 instructions:   33000002 cycles:   22318838 heartbeat IPC: 1.47749 cumulative IPC: 1.47857 (Simulation time: 0 hr 1 min 0 sec) 
Heartbeat CPU  0 instructions:   34000000 cycles:   22995477 heartbeat IPC: 1.47789 cumulative IPC: 1.47855 (Simulation time: 0 hr 1 min 1 sec) 
Heartbeat CPU  0 instructions:   35000002 cycles:   23672171 heartbeat IPC: 1.47778 cumulative IPC: 1.47853 (Simulation time: 0 hr 1 min 3 sec) 
Heartbeat CPU  0 instructions:   36000000 cycles:   24348758 heartbeat IPC: 1.47800 cumulative IPC: 1.47851 (Simulation time: 0 hr 1 min 5 sec) 
Heartbeat CPU  0 instructions:   37000000 cycles:   25025543 heartbeat IPC: 1.47757 cumulative IPC: 1.47849 (Simulation time: 0 hr 1 min 7 sec) 
Heartbeat CPU  0 instructions:   38000000 cycles:   25702178 heartbeat IPC: 1.47790 cumulative IPC: 1.47847 (Simulation time: 0 hr 1 min 9 sec) 
Heartbeat CPU  0 instructions:   39000002 cycles:   26378907 heartbeat IPC: 1.47770 cumulative IPC: 1.47845 (Simulation time: 0 hr 1 min 10 sec) 
Heartbeat CPU  0 instructions:   40000000 cycles:   27055710 heartbeat IPC: 1.47753 cumulative IPC: 1.47843 (Simulation time: 0 hr 1 min 12 sec) 
Heartbeat CPU  0 instructions:   41000000 cycles:   27732599 heartbeat IPC: 1.47735 cumulative IPC: 1.47840 (Simulation time: 0 hr 1 min 14 sec) 
Heartbeat CPU  0 instructions:   42000002 cycles:   28409236 heartbeat IPC: 1.47790 cumulative IPC: 1.47839 (Simulation time: 0 hr 1 min 16 sec) 
Heartbeat CPU  0 instructions:   43000002 cycles:   29085851 heartbeat IPC: 1.47795 cumulative IPC: 1.47838 (Simulation time: 0 hr 1 min 18 sec) 
Heartbeat CPU  0 instructions:   44000000 cycles:   29752319 heartbeat IPC: 1.50044 cumulative IPC: 1.47888 (Simulation time: 0 hr 1 min 20 sec) 
Heartbeat CPU  0 instructions:   45000003 cycles:   30418727 heartbeat IPC: 1.50059 cumulative IPC: 1.47935 (Simulation time: 0 hr 1 min 21 sec) 
Heartbeat CPU  0 instructions:   46000001 cycles:   31084812 heartbeat IPC: 1.50131 cumulative IPC: 1.47982 (Simulation time: 0 hr 1 min 23 sec) 
Heartbeat CPU  0 instructions:   47000000 cycles:   31750952 heartbeat IPC: 1.50118 cumulative IPC: 1.48027 (Simulation time: 0 hr 1 min 25 sec) 
Heartbeat CPU  0 instructions:   48000000 cycles:   32416997 heartbeat IPC: 1.50140 cumulative IPC: 1.48070 (Simulation time: 0 hr 1 min 27 sec) 
Heartbeat CPU  0 instructions:   49000000 cycles:   33083039 heartbeat IPC: 1.50141 cumulative IPC: 1.48112 (Simulation time: 0 hr 1 min 29 sec) 
Heartbeat CPU  0 instructions:   50000003 cycles:   33749445 heartbeat IPC: 1.50059 cumulative IPC: 1.48151 (Simulation time: 0 hr 1 min 31 sec) 
Heartbeat CPU  0 instructions:   51000003 cycles:   34415577 heartbeat IPC: 1.50120 cumulative IPC: 1.48189 (Simulation time: 0 hr 1 min 33 sec) 
Heartbeat CPU  0 instructions:   52000000 cycles:   35081721 heartbeat IPC: 1.50117 cumulative IPC: 1.48225 (Simulation time: 0 hr 1 min 35 sec) 
Heartbeat CPU  0 instructions:   53000003 cycles:   35747777 heartbeat IPC: 1.50138 cumulative IPC: 1.48261 (Simulation time: 0 hr 1 min 36 sec) 
Heartbeat CPU  0 instructions:   54000000 cycles:   36413807 heartbeat IPC: 1.50143 cumulative IPC: 1.48295 (Simulation time: 0 hr 1 min 38 sec) 
Heartbeat CPU  0 instructions:   55000003 cycles:   37080002 heartbeat IPC: 1.50107 cumulative IPC: 1.48328 (Simulation time: 0 hr 1 min 40 sec) 
Heartbeat CPU  0 instructions:   56000000 cycles:   37741634 heartbeat IPC: 1.51141 cumulative IPC: 1.48377 (Simulation time: 0 hr 1 min 42 sec) 
Heartbeat CPU  0 instructions:   57000003 cycles:   38402734 heartbeat IPC: 1.51263 cumulative IPC: 1.48427 (Simulation time: 0 hr 1 min 44 sec) 
Heartbeat CPU  0 instructions:   58000000 cycles:   39063935 heartbeat IPC: 1.51239 cumulative IPC: 1.48475 (Simulation time: 0 hr 1 min 46 sec) 
Heartbeat CPU  0 instructions:   59000000 cycles:   39725031 heartbeat IPC: 1.51264 cumulative IPC: 1.48521 (Simulation time: 0 hr 1 min 48 sec) 
Heartbeat CPU  0 instructions:   60000000 cycles:   40385985 heartbeat IPC: 1.51296 cumulative IPC: 1.48566 (Simulation time: 0 hr 1 min 49 sec) 
Heartbeat CPU  0 instructions:   61000001 cycles:   41047640 heartbeat IPC: 1.51136 cumulative IPC: 1.48608 (Simulation time: 0 hr 1 min 51 sec) 
Heartbeat CPU  0 instructions:   62000000 cycles:   41708958 heartbeat IPC: 1.51213 cumulative IPC: 1.48649 (Simulation time: 0 hr 1 min 53 sec) 
Heartbeat CPU  0 instructions:   63000001 cycles:   42370052 heartbeat IPC: 1.51265 cumulative IPC: 1.48690 (Simulation time: 0 hr 1 min 55 sec) 
Heartbeat CPU  0 instructions:   64000000 cycles:   43031260 heartbeat IPC: 1.51238 cumulative IPC: 1.48729 (Simulation time: 0 hr 1 min 57 sec) 
Heartbeat CPU  0 instructions:   65000003 cycles:   43692443 heartbeat IPC: 1.51245 cumulative IPC: 1.48767 (Simulation time: 0 hr 1 min 59 sec) 
Heartbeat CPU  0 instructions:   66000000 cycles:   44353547 heartbeat IPC: 1.51262 cumulative IPC: 1.48804 (Simulation time: 0 hr 2 min 0 sec) 
Heartbeat CPU  0 instructions:   67000000 cycles:   45015046 heartbeat IPC: 1.51172 cumulative IPC: 1.48839 (Simulation time: 0 hr 2 min 2 sec) 
Heartbeat CPU  0 instructions:   68000000 cycles:   45685085 heartbeat IPC: 1.49245 cumulative IPC: 1.48845 (Simulation time: 0 hr 2 min 4 sec) 
Heartbeat CPU  0 instructions:   69000002 cycles:   46355781 heartbeat IPC: 1.49099 cumulative IPC: 1.48849 (Simulation time: 0 hr 2 min 6 sec) 
Heartbeat CPU  0 instructions:   70000001 cycles:   47026684 heartbeat IPC: 1.49053 cumulative IPC: 1.48852 (Simulation time: 0 hr 2 min 8 sec) 
Heartbeat CPU  0 instructions:   71000002 cycles:   47697198 heartbeat IPC: 1.49139 cumulative IPC: 1.48856 (Simulation time: 0 hr 2 min 10 sec) 
Heartbeat CPU  0 instructions:   72000000 cycles:   48368038 heartbeat IPC: 1.49067 cumulative IPC: 1.48859 (Simulation time: 0 hr 2 min 11 sec) 
Heartbeat CPU  0 instructions:   73000000 cycles:   49038767 heartbeat IPC: 1.49092 cumulative IPC: 1.48862 (Simulation time: 0 hr 2 min 13 sec) 
Heartbeat CPU  0 instructions:   74000000 cycles:   49709427 heartbeat IPC: 1.49107 cumulative IPC: 1.48865 (Simulation time: 0 hr 2 min 15 sec) 
Heartbeat CPU  0 instructions:   75000001 cycles:   50380486 heartbeat IPC: 1.49018 cumulative IPC: 1.48867 (Simulation time: 0 hr 2 min 17 sec) 
Heartbeat CPU  0 instructions:   76000000 cycles:   51050886 heartbeat IPC: 1.49165 cumulative IPC: 1.48871 (Simulation time: 0 hr 2 min 19 sec) 
Heartbeat CPU  0 instructions:   77000000 cycles:   51721791 heartbeat IPC: 1.49052 cumulative IPC: 1.48873 (Simulation time: 0 hr 2 min 20 sec) 
Heartbeat CPU  0 instructions:   78000003 cycles:   52392475 heartbeat IPC: 1.49102 cumulative IPC: 1.48876 (Simulation time: 0 hr 2 min 22 sec) 
Heartbeat CPU  0 instructions:   79000002 cycles:   53063029 heartbeat IPC: 1.49130 cumulative IPC: 1.48880 (Simulation time: 0 hr 2 min 24 sec) 
Heartbeat CPU  0 instructions:   80000000 cycles:   53735885 heartbeat IPC: 1.48620 cumulative IPC: 1.48876 (Simulation time: 0 hr 2 min 26 sec) 
Heartbeat CPU  0 instructions:   81000003 cycles:   54409567 heartbeat IPC: 1.48438 cumulative IPC: 1.48871 (Simulation time: 0 hr 2 min 28 sec) 
Heartbeat CPU  0 instructions:   82000001 cycles:   55082573 heartbeat IPC: 1.48587 cumulative IPC: 1.48867 (Simulation time: 0 hr 2 min 30 sec) 
Heartbeat CPU  0 instructions:   83000002 cycles:   55755768 heartbeat IPC: 1.48546 cumulative IPC: 1.48864 (Simulation time: 0 hr 2 min 31 sec) 
Heartbeat CPU  0 instructions:   84000000 cycles:   56428784 heartbeat IPC: 1.48585 cumulative IPC: 1.48860 (Simulation time: 0 hr 2 min 33 sec) 
Heartbeat CPU  0 instructions:   85000000 cycles:   57102154 heartbeat IPC: 1.48507 cumulative IPC: 1.48856 (Simulation time: 0 hr 2 min 35 sec) 
Heartbeat CPU  0 instructions:   86000001 cycles:   57775471 heartbeat IPC: 1.48519 cumulative IPC: 1.48852 (Simulation time: 0 hr 2 min 37 sec) 
Heartbeat CPU  0 instructions:   87000000 cycles:   58448748 heartbeat IPC: 1.48527 cumulative IPC: 1.48848 (Simulation time: 0 hr 2 min 39 sec) 
Heartbeat CPU  0 instructions:   88000000 cycles:   59122032 heartbeat IPC: 1.48526 cumulative IPC: 1.48845 (Simulation time: 0 hr 2 min 41 sec) 
Heartbeat CPU  0 instructions:   89000002 cycles:   59795309 heartbeat IPC: 1.48528 cumulative IPC: 1.48841 (Simulation time: 0 hr 2 min 42 sec) 
Heartbeat CPU  0 instructions:   90000001 cycles:   60468424 heartbeat IPC: 1.48563 cumulative IPC: 1.48838 (Simulation time: 0 hr 2 min 44 sec) 
Heartbeat CPU  0 instructions:   91000000 cycles:   61141583 heartbeat IPC: 1.48553 cumulative IPC: 1.48835 (Simulation time: 0 hr 2 min 46 sec) 
Heartbeat CPU  0 instructions:   92000000 cycles:   61818017 heartbeat IPC: 1.47834 cumulative IPC: 1.48824 (Simulation time: 0 hr 2 min 48 sec) 
Heartbeat CPU  0 instructions:   93000001 cycles:   62497045 heartbeat IPC: 1.47269 cumulative IPC: 1.48807 (Simulation time: 0 hr 2 min 50 sec) 
Heartbeat CPU  0 instructions:   94000001 cycles:   63175966 heartbeat IPC: 1.47293 cumulative IPC: 1.48791 (Simulation time: 0 hr 2 min 51 sec) 
Heartbeat CPU  0 instructions:   95000001 cycles:   63854998 heartbeat IPC: 1.47268 cumulative IPC: 1.48775 (Simulation time: 0 hr 2 min 53 sec) 
Heartbeat CPU  0 instructions:   96000000 cycles:   64533992 heartbeat IPC: 1.47277 cumulative IPC: 1.48759 (Simulation time: 0 hr 2 min 55 sec) 
Heartbeat CPU  0 instructions:   97000000 cycles:   65213021 heartbeat IPC: 1.47269 cumulative IPC: 1.48743 (Simulation time: 0 hr 2 min 57 sec) 
Heartbeat CPU  0 instructions:   98000000 cycles:   65892054 heartbeat IPC: 1.47268 cumulative IPC: 1.48728 (Simulation time: 0 hr 2 min 59 sec) 
Heartbeat CPU  0 instructions:   99000000 cycles:   66571063 heartbeat IPC: 1.47273 cumulative IPC: 1.48713 (Simulation time: 0 hr 3 min 0 sec) 
Heartbeat CPU  0 instructions:  100000000 cycles:   67250079 heartbeat IPC: 1.47272 cumulative IPC: 1.48699 (Simulation time: 0 hr 3 min 2 sec) 

Warmup complete CPU  0 instructions:  100000001 cycles:   67250080 (Simulation time: 0 hr 3 min 2 sec) 

Heartbeat CPU  0 instructions:  101000000 cycles:   68385760 heartbeat IPC: 0.88053 cumulative IPC: 0.88053 (Simulation time: 0 hr 3 min 4 sec) 
Heartbeat CPU  0 instructions:  102000002 cycles:   69521860 heartbeat IPC: 0.88021 cumulative IPC: 0.88037 (Simulation time: 0 hr 3 min 6 sec) 
Heartbeat CPU  0 instructions:  103000001 cycles:   70657277 heartbeat IPC: 0.88073 cumulative IPC: 0.88049 (Simulation time: 0 hr 3 min 8 sec) 
Heartbeat CPU  0 instructions:  104000000 cycles:   71790858 heartbeat IPC: 0.88216 cumulative IPC: 0.88091 (Simulation time: 0 hr 3 min 10 sec) 
Heartbeat CPU  0 instructions:  105000001 cycles:   72925735 heartbeat IPC: 0.88115 cumulative IPC: 0.88096 (Simulation time: 0 hr 3 min 12 sec) 
Heartbeat CPU  0 instructions:  106000001 cycles:   74060080 heartbeat IPC: 0.88157 cumulative IPC: 0.88106 (Simulation time: 0 hr 3 min 14 sec) 
Heartbeat CPU  0 instructions:  107000002 cycles:   75424419 heartbeat IPC: 0.73296 cumulative IPC: 0.85634 (Simulation time: 0 hr 3 min 16 sec) 
Heartbeat CPU  0 instructions:  108000000 cycles:   76570671 heartbeat IPC: 0.87241 cumulative IPC: 0.85831 (Simulation time: 0 hr 3 min 18 sec) 
Heartbeat CPU  0 instructions:  109000000 cycles:   77708383 heartbeat IPC: 0.87896 cumulative IPC: 0.86056 (Simulation time: 0 hr 3 min 20 sec) 
Heartbeat CPU  0 instructions:  110000002 cycles:   78842633 heartbeat IPC: 0.88164 cumulative IPC: 0.86262 (Simulation time: 0 hr 3 min 22 sec) 
Heartbeat CPU  0 instructions:  111000000 cycles:   79979450 heartbeat IPC: 0.87965 cumulative IPC: 0.86414 (Simulation time: 0 hr 3 min 24 sec) 
Heartbeat CPU  0 instructions:  112000000 cycles:   81113206 heartbeat IPC: 0.88202 cumulative IPC: 0.86561 (Simulation time: 0 hr 3 min 26 sec) 
Heartbeat CPU  0 instructions:  113000000 cycles:   82250364 heartbeat IPC: 0.87939 cumulative IPC: 0.86665 (Simulation time: 0 hr 3 min 28 sec) 
Heartbeat CPU  0 instructions:  114000002 cycles:   83388435 heartbeat IPC: 0.87868 cumulative IPC: 0.86750 (Simulation time: 0 hr 3 min 30 sec) 
Heartbeat CPU  0 instructions:  115000002 cycles:   84522594 heartbeat IPC: 0.88171 cumulative IPC: 0.86843 (Simulation time: 0 hr 3 min 32 sec) 
Heartbeat CPU  0 instructions:  116000000 cycles:   85656024 heartbeat IPC: 0.88228 cumulative IPC: 0.86928 (Simulation time: 0 hr 3 min 34 sec) 
Heartbeat CPU  0 instructions:  117000002 cycles:   86791915 heartbeat IPC: 0.88037 cumulative IPC: 0.86993 (Simulation time: 0 hr 3 min 37 sec) 
Heartbeat CPU  0 instructions:  118000000 cycles:   87927055 heartbeat IPC: 0.88095 cumulative IPC: 0.87053 (Simulation time: 0 hr 3 min 39 sec) 
Heartbeat CPU  0 instructions:  119000000 cycles:   89070291 heartbeat IPC: 0.87471 cumulative IPC: 0.87075 (Simulation time: 0 hr 3 min 41 sec) 
Heartbeat CPU  0 instructions:  120000000 cycles:   90207556 heartbeat IPC: 0.87930 cumulative IPC: 0.87118 (Simulation time: 0 hr 3 min 43 sec) 
Heartbeat CPU  0 instructions:  121000002 cycles:   91355814 heartbeat IPC: 0.87089 cumulative IPC: 0.87116 (Simulation time: 0 hr 3 min 45 sec) 
Heartbeat CPU  0 instructions:  122000002 cycles:   92488015 heartbeat IPC: 0.88324 cumulative IPC: 0.87170 (Simulation time: 0 hr 3 min 47 sec) 
Heartbeat CPU  0 instructions:  123000003 cycles:   93369976 heartbeat IPC: 1.13384 cumulative IPC: 0.88055 (Simulation time: 0 hr 3 min 48 sec) 
Heartbeat CPU  0 instructions:  124000000 cycles:   94328184 heartbeat IPC: 1.04361 cumulative IPC: 0.88632 (Simulation time: 0 hr 3 min 50 sec) 
Heartbeat CPU  0 instructions:  125000000 cycles:   95427463 heartbeat IPC: 0.90969 cumulative IPC: 0.88724 (Simulation time: 0 hr 3 min 52 sec) 
Heartbeat CPU  0 instructions:  126000000 cycles:   96600384 heartbeat IPC: 0.85257 cumulative IPC: 0.88585 (Simulation time: 0 hr 3 min 53 sec) 
Heartbeat CPU  0 instructions:  127000001 cycles:   97781925 heartbeat IPC: 0.84635 cumulative IPC: 0.88432 (Simulation time: 0 hr 3 min 55 sec) 
Heartbeat CPU  0 instructions:  128000000 cycles:   98934896 heartbeat IPC: 0.86732 cumulative IPC: 0.88370 (Simulation time: 0 hr 3 min 57 sec) 
Heartbeat CPU  0 instructions:  129000002 cycles:  100103317 heartbeat IPC: 0.85586 cumulative IPC: 0.88271 (Simulation time: 0 hr 3 min 58 sec) 
Heartbeat CPU  0 instructions:  130000002 cycles:  101277510 heartbeat IPC: 0.85165 cumulative IPC: 0.88164 (Simulation time: 0 hr 4 min 0 sec) 
Heartbeat CPU  0 instructions:  131000003 cycles:  102423059 heartbeat IPC: 0.87294 cumulative IPC: 0.88136 (Simulation time: 0 hr 4 min 2 sec) 
Heartbeat CPU  0 instructions:  132000000 cycles:  103580286 heartbeat IPC: 0.86413 cumulative IPC: 0.88081 (Simulation time: 0 hr 4 min 4 sec) 
Heartbeat CPU  0 instructions:  133000000 cycles:  104724871 heartbeat IPC: 0.87368 cumulative IPC: 0.88059 (Simulation time: 0 hr 4 min 5 sec) 
Heartbeat CPU  0 instructions:  134000001 cycles:  105872053 heartbeat IPC: 0.87170 cumulative IPC: 0.88033 (Simulation time: 0 hr 4 min 7 sec) 
Heartbeat CPU  0 instructions:  135000001 cycles:  107017924 heartbeat IPC: 0.87270 cumulative IPC: 0.88011 (Simulation time: 0 hr 4 min 9 sec) 
Heartbeat CPU  0 instructions:  136000000 cycles:  108193620 heartbeat IPC: 0.85056 cumulative IPC: 0.87926 (Simulation time: 0 hr 4 min 11 sec) 
Heartbeat CPU  0 instructions:  137000002 cycles:  109355796 heartbeat IPC: 0.86046 cumulative IPC: 0.87874 (Simulation time: 0 hr 4 min 12 sec) 
Heartbeat CPU  0 instructions:  138000003 cycles:  110515071 heartbeat IPC: 0.86261 cumulative IPC: 0.87831 (Simulation time: 0 hr 4 min 14 sec) 
Heartbeat CPU  0 instructions:  139000000 cycles:  111660029 heartbeat IPC: 0.87339 cumulative IPC: 0.87818 (Simulation time: 0 hr 4 min 16 sec) 
Heartbeat CPU  0 instructions:  140000000 cycles:  112824363 heartbeat IPC: 0.85886 cumulative IPC: 0.87769 (Simulation time: 0 hr 4 min 17 sec) 
Heartbeat CPU  0 instructions:  141000000 cycles:  113981149 heartbeat IPC: 0.86446 cumulative IPC: 0.87736 (Simulation time: 0 hr 4 min 19 sec) 
Heartbeat CPU  0 instructions:  142000001 cycles:  115124939 heartbeat IPC: 0.87429 cumulative IPC: 0.87729 (Simulation time: 0 hr 4 min 21 sec) 
Heartbeat CPU  0 instructions:  143000001 cycles:  116285793 heartbeat IPC: 0.86143 cumulative IPC: 0.87691 (Simulation time: 0 hr 4 min 23 sec) 
Heartbeat CPU  0 instructions:  144000000 cycles:  117439849 heartbeat IPC: 0.86651 cumulative IPC: 0.87667 (Simulation time: 0 hr 4 min 24 sec) 
Heartbeat CPU  0 instructions:  145000002 cycles:  118596247 heartbeat IPC: 0.86476 cumulative IPC: 0.87640 (Simulation time: 0 hr 4 min 26 sec) 
Heartbeat CPU  0 instructions:  146000000 cycles:  119754526 heartbeat IPC: 0.86335 cumulative IPC: 0.87612 (Simulation time: 0 hr 4 min 28 sec) 
Heartbeat CPU  0 instructions:  147000003 cycles:  120904920 heartbeat IPC: 0.86927 cumulative IPC: 0.87597 (Simulation time: 0 hr 4 min 29 sec) 
Heartbeat CPU  0 instructions:  148000000 cycles:  122132995 heartbeat IPC: 0.81428 cumulative IPC: 0.87459 (Simulation time: 0 hr 4 min 31 sec) 
Heartbeat CPU  0 instructions:  149000000 cycles:  123517253 heartbeat IPC: 0.72241 cumulative IPC: 0.87085 (Simulation time: 0 hr 4 min 33 sec) 
Heartbeat CPU  0 instructions:  150000001 cycles:  124915903 heartbeat IPC: 0.71498 cumulative IPC: 0.86706 (Simulation time: 0 hr 4 min 35 sec) 
Heartbeat CPU  0 instructions:  151000001 cycles:  126301212 heartbeat IPC: 0.72186 cumulative IPC: 0.86366 (Simulation time: 0 hr 4 min 37 sec) 
Heartbeat CPU  0 instructions:  152000000 cycles:  127639827 heartbeat IPC: 0.74704 cumulative IPC: 0.86107 (Simulation time: 0 hr 4 min 38 sec) 
Heartbeat CPU  0 instructions:  153000002 cycles:  129065170 heartbeat IPC: 0.70159 cumulative IPC: 0.85740 (Simulation time: 0 hr 4 min 40 sec) 
Heartbeat CPU  0 instructions:  154000003 cycles:  130420588 heartbeat IPC: 0.73778 cumulative IPC: 0.85483 (Simulation time: 0 hr 4 min 42 sec) 
Heartbeat CPU  0 instructions:  155000003 cycles:  131805693 heartbeat IPC: 0.72197 cumulative IPC: 0.85198 (Simulation time: 0 hr 4 min 44 sec) 
Heartbeat CPU  0 instructions:  156000000 cycles:  133187237 heartbeat IPC: 0.72383 cumulative IPC: 0.84929 (Simulation time: 0 hr 4 min 46 sec) 
Heartbeat CPU  0 instructions:  157000000 cycles:  134607300 heartbeat IPC: 0.70419 cumulative IPC: 0.84623 (Simulation time: 0 hr 4 min 47 sec) 
Heartbeat CPU  0 instructions:  158000001 cycles:  135960014 heartbeat IPC: 0.73926 cumulative IPC: 0.84413 (Simulation time: 0 hr 4 min 49 sec) 
Heartbeat CPU  0 instructions:  159000001 cycles:  137349767 heartbeat IPC: 0.71955 cumulative IPC: 0.84166 (Simulation time: 0 hr 4 min 51 sec) 
Heartbeat CPU  0 instructions:  160000000 cycles:  138738268 heartbeat IPC: 0.72020 cumulative IPC: 0.83930 (Simulation time: 0 hr 4 min 53 sec) 
Heartbeat CPU  0 instructions:  161000002 cycles:  140143145 heartbeat IPC: 0.71181 cumulative IPC: 0.83684 (Simulation time: 0 hr 4 min 55 sec) 
Heartbeat CPU  0 instructions:  162000003 cycles:  141508515 heartbeat IPC: 0.73240 cumulative IPC: 0.83492 (Simulation time: 0 hr 4 min 56 sec) 
Heartbeat CPU  0 instructions:  163000003 cycles:  142941924 heartbeat IPC: 0.69764 cumulative IPC: 0.83232 (Simulation time: 0 hr 4 min 58 sec) 
Heartbeat CPU  0 instructions:  164000000 cycles:  144327061 heartbeat IPC: 0.72195 cumulative IPC: 0.83034 (Simulation time: 0 hr 5 min 0 sec) 
Heartbeat CPU  0 instructions:  165000000 cycles:  145730668 heartbeat IPC: 0.71245 cumulative IPC: 0.82823 (Simulation time: 0 hr 5 min 2 sec) 
Heartbeat CPU  0 instructions:  166000001 cycles:  147085345 heartbeat IPC: 0.73818 cumulative IPC: 0.82670 (Simulation time: 0 hr 5 min 4 sec) 
Heartbeat CPU  0 instructions:  167000001 cycles:  148539437 heartbeat IPC: 0.68771 cumulative IPC: 0.82422 (Simulation time: 0 hr 5 min 6 sec) 
Heartbeat CPU  0 instructions:  168000000 cycles:  149915120 heartbeat IPC: 0.72691 cumulative IPC: 0.82260 (Simulation time: 0 hr 5 min 7 sec) 
Heartbeat CPU  0 instructions:  169000002 cycles:  151318414 heartbeat IPC: 0.71261 cumulative IPC: 0.82076 (Simulation time: 0 hr 5 min 9 sec) 
Heartbeat CPU  0 instructions:  170000000 cycles:  152706495 heartbeat IPC: 0.72042 cumulative IPC: 0.81913 (Simulation time: 0 hr 5 min 11 sec) 
Heartbeat CPU  0 instructions:  171000000 cycles:  154075381 heartbeat IPC: 0.73052 cumulative IPC: 0.81773 (Simulation time: 0 hr 5 min 13 sec) 
Heartbeat CPU  0 instructions:  172000000 cycles:  155427895 heartbeat IPC: 0.73936 cumulative IPC: 0.81653 (Simulation time: 0 hr 5 min 15 sec) 
Heartbeat CPU  0 instructions:  173000001 cycles:  156808447 heartbeat IPC: 0.72435 cumulative IPC: 0.81511 (Simulation time: 0 hr 5 min 16 sec) 
Heartbeat CPU  0 instructions:  174000001 cycles:  158214427 heartbeat IPC: 0.71125 cumulative IPC: 0.81351 (Simulation time: 0 hr 5 min 18 sec) 
Heartbeat CPU  0 instructions:  175000002 cycles:  159558195 heartbeat IPC: 0.74418 cumulative IPC: 0.81250 (Simulation time: 0 hr 5 min 20 sec) 
Heartbeat CPU  0 instructions:  176000000 cycles:  160956296 heartbeat IPC: 0.71525 cumulative IPC: 0.81105 (Simulation time: 0 hr 5 min 22 sec) 
Heartbeat CPU  0 instructions:  177000003 cycles:  162318089 heartbeat IPC: 0.73433 cumulative IPC: 0.80995 (Simulation time: 0 hr 5 min 24 sec) 
Heartbeat CPU  0 instructions:  178000003 cycles:  163719425 heartbeat IPC: 0.71360 cumulative IPC: 0.80855 (Simulation time: 0 hr 5 min 25 sec) 
Heartbeat CPU  0 instructions:  179000000 cycles:  165066954 heartbeat IPC: 0.74210 cumulative IPC: 0.80763 (Simulation time: 0 hr 5 min 27 sec) 
Heartbeat CPU  0 instructions:  180000000 cycles:  166471355 heartbeat IPC: 0.71205 cumulative IPC: 0.80628 (Simulation time: 0 hr 5 min 29 sec) 
Heartbeat CPU  0 instructions:  181000001 cycles:  167844821 heartbeat IPC: 0.72809 cumulative IPC: 0.80521 (Simulation time: 0 hr 5 min 31 sec) 
Heartbeat CPU  0 instructions:  182000001 cycles:  169246159 heartbeat IPC: 0.71360 cumulative IPC: 0.80395 (Simulation time: 0 hr 5 min 33 sec) 
Heartbeat CPU  0 instructions:  183000002 cycles:  170581020 heartbeat IPC: 0.74914 cumulative IPC: 0.80324 (Simulation time: 0 hr 5 min 34 sec) 
Heartbeat CPU  0 instructions:  184000000 cycles:  172033983 heartbeat IPC: 0.68825 cumulative IPC: 0.80165 (Simulation time: 0 hr 5 min 36 sec) 
Heartbeat CPU  0 instructions:  185000003 cycles:  173368548 heartbeat IPC: 0.74931 cumulative IPC: 0.80099 (Simulation time: 0 hr 5 min 38 sec) 
Heartbeat CPU  0 instructions:  186000003 cycles:  174786328 heartbeat IPC: 0.70533 cumulative IPC: 0.79973 (Simulation time: 0 hr 5 min 40 sec) 
Heartbeat CPU  0 instructions:  187000001 cycles:  176186088 heartbeat IPC: 0.71441 cumulative IPC: 0.79863 (Simulation time: 0 hr 5 min 42 sec) 
Heartbeat CPU  0 instructions:  188000000 cycles:  177611105 heartbeat IPC: 0.70175 cumulative IPC: 0.79738 (Simulation time: 0 hr 5 min 44 sec) 
Heartbeat CPU  0 instructions:  189000001 cycles:  178950351 heartbeat IPC: 0.74669 cumulative IPC: 0.79678 (Simulation time: 0 hr 5 min 45 sec) 
Heartbeat CPU  0 instructions:  190000001 cycles:  180359197 heartbeat IPC: 0.70980 cumulative IPC: 0.79569 (Simulation time: 0 hr 5 min 47 sec) 
Heartbeat CPU  0 instructions:  191000002 cycles:  181758964 heartbeat IPC: 0.71441 cumulative IPC: 0.79470 (Simulation time: 0 hr 5 min 49 sec) 
Heartbeat CPU  0 instructions:  192000000 cycles:  183166569 heartbeat IPC: 0.71043 cumulative IPC: 0.79367 (Simulation time: 0 hr 5 min 51 sec) 
Heartbeat CPU  0 instructions:  193000003 cycles:  184540694 heartbeat IPC: 0.72774 cumulative IPC: 0.79290 (Simulation time: 0 hr 5 min 53 sec) 
Heartbeat CPU  0 instructions:  194000003 cycles:  185953052 heartbeat IPC: 0.70804 cumulative IPC: 0.79189 (Simulation time: 0 hr 5 min 54 sec) 
Heartbeat CPU  0 instructions:  195000000 cycles:  187300939 heartbeat IPC: 0.74190 cumulative IPC: 0.79133 (Simulation time: 0 hr 5 min 56 sec) 
Heartbeat CPU  0 instructions:  196000000 cycles:  188674824 heartbeat IPC: 0.72786 cumulative IPC: 0.79061 (Simulation time: 0 hr 5 min 58 sec) 
Heartbeat CPU  0 instructions:  197000001 cycles:  190050943 heartbeat IPC: 0.72668 cumulative IPC: 0.78990 (Simulation time: 0 hr 6 min 0 sec) 
Heartbeat CPU  0 instructions:  198000001 cycles:  191469377 heartbeat IPC: 0.70500 cumulative IPC: 0.78893 (Simulation time: 0 hr 6 min 2 sec) 
Heartbeat CPU  0 instructions:  199000002 cycles:  192807148 heartbeat IPC: 0.74751 cumulative IPC: 0.78849 (Simulation time: 0 hr 6 min 3 sec) 
Heartbeat CPU  0 instructions:  200000000 cycles:  194192627 heartbeat IPC: 0.72177 cumulative IPC: 0.78776 (Simulation time: 0 hr 6 min 5 sec) 
Finished CPU 0 instructions: 100000001 cycles: 126942555 cumulative IPC: 0.78776 (Simulation time: 0 hr 6 min 5 sec) 

ChampSim completed all CPUs

[ROI Statistics]
Core_0_instructions 100000001
Core_0_cycles 126942555
Core_0_IPC 0.78776

Core_0_branch_prediction_accuracy 99.52414
Core_0_branch_MPKI 0.08716
Core_0_average_ROB_occupancy_at_mispredict 253.77960

Core_0_L1D_total_access 54153105
Core_0_L1D_total_hit 51128843
Core_0_L1D_total_miss 3024262
Core_0_L1D_loads 27098236
Core_0_L1D_load_hit 26053124
Core_0_L1D_load_miss 1045112
Core_0_L1D_RFOs 6122318
Core_0_L1D_RFO_hit 6122297
Core_0_L1D_RFO_miss 21
Core_0_L1D_prefetches 20932551
Core_0_L1D_prefetch_hit 18953422
Core_0_L1D_prefetch_miss 1979129
Core_0_L1D_writebacks 0
Core_0_L1D_writeback_hit 0
Core_0_L1D_writeback_miss 0
Core_0_L1D_prefetch_requested 80515214
Core_0_L1D_prefetch_issued 70019741
Core_0_L1D_prefetch_useful 1352220
Core_0_L1D_prefetch_useless 3514720
Core_0_L1D_prefetch_late 368481
Core_0_L1D_average_miss_latency 17314791.54452

Core_0_L1I_total_access 21069954
Core_0_L1I_total_hit 21069877
Core_0_L1I_total_miss 77
Core_0_L1I_loads 21069954
Core_0_L1I_load_hit 21069877
Core_0_L1I_load_miss 77
Core_0_L1I_RFOs 0
Core_0_L1I_RFO_hit 0
Core_0_L1I_RFO_miss 0
Core_0_L1I_prefetches 0
Core_0_L1I_prefetch_hit 0
Core_0_L1I_prefetch_miss 0
Core_0_L1I_writebacks 0
Core_0_L1I_writeback_hit 0
Core_0_L1I_writeback_miss 0
Core_0_L1I_prefetch_requested 0
Core_0_L1I_prefetch_issued 0
Core_0_L1I_prefetch_useful 0
Core_0_L1I_prefetch_useless 0
Core_0_L1I_prefetch_late 0
Core_0_L1I_average_miss_latency 193.67532

Core_0_L2C_total_access 3703615
Core_0_L2C_total_hit 1710193
Core_0_L2C_total_miss 1993422
Core_0_L2C_loads 676709
Core_0_L2C_load_hit 549487
Core_0_L2C_load_miss 127222
Core_0_L2C_RFOs 21
Core_0_L2C_RFO_hit 0
Core_0_L2C_RFO_miss 21
Core_0_L2C_prefetches 2347603
Core_0_L2C_prefetch_hit 481539
Core_0_L2C_prefetch_miss 1866064
Core_0_L2C_writebacks 679282
Core_0_L2C_writeback_hit 679167
Core_0_L2C_writeback_miss 115
Core_0_L2C_prefetch_requested 0
Core_0_L2C_prefetch_issued 0
Core_0_L2C_prefetch_useful 311197
Core_0_L2C_prefetch_useless 2251279
Core_0_L2C_prefetch_late 0
Core_0_L2C_average_miss_latency 229.70566

Core_0_LLC_total_access 3414545
Core_0_LLC_total_hit 1517362
Core_0_LLC_total_miss 1897183
Core_0_LLC_loads 127222
Core_0_LLC_load_hit 23882
Core_0_LLC_load_miss 103340
Core_0_LLC_RFOs 21
Core_0_LLC_RFO_hit 1
Core_0_LLC_RFO_miss 20
Core_0_LLC_prefetches 2611902
Core_0_LLC_prefetch_hit 829111
Core_0_LLC_prefetch_miss 1782791
Core_0_LLC_writebacks 675400
Core_0_LLC_writeback_hit 664368
Core_0_LLC_writeback_miss 11032
Core_0_LLC_prefetch_requested 2511887
Core_0_LLC_prefetch_issued 2474804
Core_0_LLC_prefetch_useful 50131
Core_0_LLC_prefetch_useless 2439313
Core_0_LLC_prefetch_late 112
Core_0_LLC_average_miss_latency 377.44616

Core_0_major_page_fault 0
Core_0_minor_page_fault 80857

CPU 0 L1D next line prefetcher final stats
LLC Next Line Prefetcher Final Stats: none
Channel_0_RQ_row_buffer_hit 446351
Channel_0_RQ_row_buffer_miss 1439800
Channel_0_WQ_row_buffer_hit 110986
Channel_0_WQ_row_buffer_miss 556402
Channel_0_WQ_full 0
Channel_0_dbus_congested 1175076

avg_congested_cycle 10
