*************************************************
   ChampSim Multicore Out-of-Order Simulator
   Last compiled: Dec 25 2023 18:04:10
*************************************************

trace_0 ./test_trace/459.GemsFDTD-1320B.champsimtrace.xz
warmup_instructions 100000000
simulation_instructions 100000000
champsim_seed 264

num_cpus 1
cpu_freq 4000
dram_io_freq 2400
page_size 4096
block_size 64
max_read_per_cycle 8
max_fill_per_cycle 1
dram_channels 1
dram_ranks 1
dram_banks 8
dram_rows 65536
dram_columns 128
dram_row_size 8
dram_size 4096
dram_pages 1048576

fetch_width 6
decode_width 6
exec_width 4
lq_width 2
sq_width 2
retire_width 4
scheduler_size 128
branch_mispredict_penalty 20
rob_size 256
lq_size 72
sq_size 56
num_instr_destinations_sparc 4
num_instr_destinations 2
num_instr_sources 4

itlb_set 16
itlb_way 8
itlb_rq_size 16
itlb_wq_size 16
itlb_pq_size 0
itlb_mshr_size 8
itlb_latency 1

dtlb_set 16
dtlb_way 4
dtlb_rq_size 16
dtlb_wq_size 16
dtlb_pq_size 0
dtlb_mshr_size 8
dtlb_latency 1

stlb_set 128
stlb_way 12
stlb_rq_size 32
stlb_wq_size 32
stlb_pq_size 0
stlb_mshr_size 16
stlb_latency 8

l1i_size 32
l1i_set 64
l1i_way 8
l1i_rq_size 64
l1i_wq_size 64
l1i_pq_size 8
l1i_mshr_size 8
l1i_latency 1

l1d_size 32
l1d_set 64
l1d_way 8
l1d_rq_size 64
l1d_wq_size 64
l1d_pq_size 8
l1d_mshr_size 16
l1d_latency 4

l2c_size 512
l2c_set 1024
l2c_way 8
l2c_rq_size 32
l2c_wq_size 32
l2c_pq_size 16
l2c_mshr_size 32
l2c_latency 10

llc_size 2048
llc_set 2048
llc_way 16
llc_rq_size 32
llc_wq_size 32
llc_pq_size 32
llc_mshr_size 64
llc_latency 20

dram_channel_width 8
dram_wq_size 64
dram_rq_size 64
tRP 15
tRCD 15
tCAS 12.5
dram_dbus_turn_around_time 30
dram_write_high_wm 56
dram_write_low_wm 48
min_dram_writes_per_switch 16
dram_mtps 2400
dram_dbus_return_time 13


Heartbeat CPU  0 instructions:    1000000 cycles:     673612 heartbeat IPC: 1.48453 cumulative IPC: 1.48453 (Simulation time: 0 hr 0 min 1 sec) 
Heartbeat CPU  0 instructions:    2000003 cycles:    1346498 heartbeat IPC: 1.48614 cumulative IPC: 1.48534 (Simulation time: 0 hr 0 min 3 sec) 
Heartbeat CPU  0 instructions:    3000002 cycles:    2019302 heartbeat IPC: 1.48632 cumulative IPC: 1.48566 (Simulation time: 0 hr 0 min 5 sec) 
Heartbeat CPU  0 instructions:    4000000 cycles:    2692218 heartbeat IPC: 1.48607 cumulative IPC: 1.48576 (Simulation time: 0 hr 0 min 7 sec) 
Heartbeat CPU  0 instructions:    5000001 cycles:    3365328 heartbeat IPC: 1.48564 cumulative IPC: 1.48574 (Simulation time: 0 hr 0 min 8 sec) 
Heartbeat CPU  0 instructions:    6000001 cycles:    4037823 heartbeat IPC: 1.48700 cumulative IPC: 1.48595 (Simulation time: 0 hr 0 min 10 sec) 
Heartbeat CPU  0 instructions:    7000001 cycles:    4710458 heartbeat IPC: 1.48669 cumulative IPC: 1.48606 (Simulation time: 0 hr 0 min 12 sec) 
Heartbeat CPU  0 instructions:    8000000 cycles:    5383205 heartbeat IPC: 1.48644 cumulative IPC: 1.48610 (Simulation time: 0 hr 0 min 13 sec) 
Heartbeat CPU  0 instructions:    9000003 cycles:    6056020 heartbeat IPC: 1.48630 cumulative IPC: 1.48612 (Simulation time: 0 hr 0 min 15 sec) 
Heartbeat CPU  0 instructions:   10000003 cycles:    6728791 heartbeat IPC: 1.48639 cumulative IPC: 1.48615 (Simulation time: 0 hr 0 min 17 sec) 
Heartbeat CPU  0 instructions:   11000003 cycles:    7401534 heartbeat IPC: 1.48645 cumulative IPC: 1.48618 (Simulation time: 0 hr 0 min 19 sec) 
Heartbeat CPU  0 instructions:   12000000 cycles:    8074238 heartbeat IPC: 1.48653 cumulative IPC: 1.48621 (Simulation time: 0 hr 0 min 20 sec) 
Heartbeat CPU  0 instructions:   13000000 cycles:    8752031 heartbeat IPC: 1.47538 cumulative IPC: 1.48537 (Simulation time: 0 hr 0 min 22 sec) 
Heartbeat CPU  0 instructions:   14000002 cycles:    9431189 heartbeat IPC: 1.47241 cumulative IPC: 1.48444 (Simulation time: 0 hr 0 min 24 sec) 
Heartbeat CPU  0 instructions:   15000000 cycles:   10110406 heartbeat IPC: 1.47228 cumulative IPC: 1.48362 (Simulation time: 0 hr 0 min 25 sec) 
Heartbeat CPU  0 instructions:   16000000 cycles:   10789649 heartbeat IPC: 1.47223 cumulative IPC: 1.48290 (Simulation time: 0 hr 0 min 27 sec) 
Heartbeat CPU  0 instructions:   17000002 cycles:   11468972 heartbeat IPC: 1.47206 cumulative IPC: 1.48226 (Simulation time: 0 hr 0 min 29 sec) 
Heartbeat CPU  0 instructions:   18000003 cycles:   12148188 heartbeat IPC: 1.47229 cumulative IPC: 1.48170 (Simulation time: 0 hr 0 min 31 sec) 
Heartbeat CPU  0 instructions:   19000003 cycles:   12827309 heartbeat IPC: 1.47249 cumulative IPC: 1.48122 (Simulation time: 0 hr 0 min 32 sec) 
Heartbeat CPU  0 instructions:   20000000 cycles:   13506623 heartbeat IPC: 1.47207 cumulative IPC: 1.48076 (Simulation time: 0 hr 0 min 34 sec) 
Heartbeat CPU  0 instructions:   21000002 cycles:   14185881 heartbeat IPC: 1.47220 cumulative IPC: 1.48035 (Simulation time: 0 hr 0 min 36 sec) 
Heartbeat CPU  0 instructions:   22000000 cycles:   14865138 heartbeat IPC: 1.47219 cumulative IPC: 1.47997 (Simulation time: 0 hr 0 min 37 sec) 
Heartbeat CPU  0 instructions:   23000000 cycles:   15544393 heartbeat IPC: 1.47220 cumulative IPC: 1.47963 (Simulation time: 0 hr 0 min 39 sec) 
Heartbeat CPU  0 instructions:   24000000 cycles:   16223662 heartbeat IPC: 1.47217 cumulative IPC: 1.47932 (Simulation time: 0 hr 0 min 41 sec) 
Heartbeat CPU  0 instructions:   25000001 cycles:   16903055 heartbeat IPC: 1.47190 cumulative IPC: 1.47902 (Simulation time: 0 hr 0 min 42 sec) 
Heartbeat CPU  0 instructions:   26000001 cycles:   17582346 heartbeat IPC: 1.47212 cumulative IPC: 1.47876 (Simulation time: 0 hr 0 min 44 sec) 
Heartbeat CPU  0 instructions:   27000001 cycles:   18261575 heartbeat IPC: 1.47226 cumulative IPC: 1.47851 (Simulation time: 0 hr 0 min 46 sec) 
Heartbeat CPU  0 instructions:   28000000 cycles:   18939991 heartbeat IPC: 1.47402 cumulative IPC: 1.47835 (Simulation time: 0 hr 0 min 48 sec) 
Heartbeat CPU  0 instructions:   29000002 cycles:   19616710 heartbeat IPC: 1.47772 cumulative IPC: 1.47833 (Simulation time: 0 hr 0 min 49 sec) 
Heartbeat CPU  0 instructions:   30000000 cycles:   20293405 heartbeat IPC: 1.47777 cumulative IPC: 1.47831 (Simulation time: 0 hr 0 min 51 sec) 
Heartbeat CPU  0 instructions:   31000000 cycles:   20970011 heartbeat IPC: 1.47796 cumulative IPC: 1.47830 (Simulation time: 0 hr 0 min 53 sec) 
Heartbeat CPU  0 instructions:   32000000 cycles:   21646615 heartbeat IPC: 1.47797 cumulative IPC: 1.47829 (Simulation time: 0 hr 0 min 54 sec) 
Heartbeat CPU  0 instructions:   33000002 cycles:   22323412 heartbeat IPC: 1.47755 cumulative IPC: 1.47827 (Simulation time: 0 hr 0 min 56 sec) 
Heartbeat CPU  0 instructions:   34000000 cycles:   23000077 heartbeat IPC: 1.47783 cumulative IPC: 1.47826 (Simulation time: 0 hr 0 min 58 sec) 
Heartbeat CPU  0 instructions:   35000002 cycles:   23676771 heartbeat IPC: 1.47778 cumulative IPC: 1.47824 (Simulation time: 0 hr 0 min 59 sec) 
Heartbeat CPU  0 instructions:   36000000 cycles:   24353433 heartbeat IPC: 1.47784 cumulative IPC: 1.47823 (Simulation time: 0 hr 1 min 1 sec) 
Heartbeat CPU  0 instructions:   37000000 cycles:   25030266 heartbeat IPC: 1.47747 cumulative IPC: 1.47821 (Simulation time: 0 hr 1 min 3 sec) 
Heartbeat CPU  0 instructions:   38000000 cycles:   25706888 heartbeat IPC: 1.47793 cumulative IPC: 1.47820 (Simulation time: 0 hr 1 min 5 sec) 
Heartbeat CPU  0 instructions:   39000002 cycles:   26383613 heartbeat IPC: 1.47771 cumulative IPC: 1.47819 (Simulation time: 0 hr 1 min 6 sec) 
Heartbeat CPU  0 instructions:   40000000 cycles:   27060433 heartbeat IPC: 1.47749 cumulative IPC: 1.47817 (Simulation time: 0 hr 1 min 8 sec) 
Heartbeat CPU  0 instructions:   41000000 cycles:   27737375 heartbeat IPC: 1.47723 cumulative IPC: 1.47815 (Simulation time: 0 hr 1 min 10 sec) 
Heartbeat CPU  0 instructions:   42000002 cycles:   28414025 heartbeat IPC: 1.47787 cumulative IPC: 1.47814 (Simulation time: 0 hr 1 min 11 sec) 
Heartbeat CPU  0 instructions:   43000002 cycles:   29090670 heartbeat IPC: 1.47788 cumulative IPC: 1.47814 (Simulation time: 0 hr 1 min 13 sec) 
Heartbeat CPU  0 instructions:   44000000 cycles:   29757085 heartbeat IPC: 1.50056 cumulative IPC: 1.47864 (Simulation time: 0 hr 1 min 15 sec) 
Heartbeat CPU  0 instructions:   45000003 cycles:   30423439 heartbeat IPC: 1.50071 cumulative IPC: 1.47912 (Simulation time: 0 hr 1 min 16 sec) 
Heartbeat CPU  0 instructions:   46000001 cycles:   31089576 heartbeat IPC: 1.50119 cumulative IPC: 1.47960 (Simulation time: 0 hr 1 min 18 sec) 
Heartbeat CPU  0 instructions:   47000000 cycles:   31755803 heartbeat IPC: 1.50099 cumulative IPC: 1.48004 (Simulation time: 0 hr 1 min 20 sec) 
Heartbeat CPU  0 instructions:   48000000 cycles:   32421818 heartbeat IPC: 1.50147 cumulative IPC: 1.48048 (Simulation time: 0 hr 1 min 22 sec) 
Heartbeat CPU  0 instructions:   49000000 cycles:   33087925 heartbeat IPC: 1.50126 cumulative IPC: 1.48090 (Simulation time: 0 hr 1 min 23 sec) 
Heartbeat CPU  0 instructions:   50000003 cycles:   33754289 heartbeat IPC: 1.50069 cumulative IPC: 1.48129 (Simulation time: 0 hr 1 min 25 sec) 
Heartbeat CPU  0 instructions:   51000003 cycles:   34420482 heartbeat IPC: 1.50107 cumulative IPC: 1.48168 (Simulation time: 0 hr 1 min 27 sec) 
Heartbeat CPU  0 instructions:   52000000 cycles:   35086821 heartbeat IPC: 1.50073 cumulative IPC: 1.48204 (Simulation time: 0 hr 1 min 28 sec) 
Heartbeat CPU  0 instructions:   53000003 cycles:   35753019 heartbeat IPC: 1.50106 cumulative IPC: 1.48239 (Simulation time: 0 hr 1 min 30 sec) 
Heartbeat CPU  0 instructions:   54000000 cycles:   36418948 heartbeat IPC: 1.50166 cumulative IPC: 1.48274 (Simulation time: 0 hr 1 min 32 sec) 
Heartbeat CPU  0 instructions:   55000000 cycles:   37085171 heartbeat IPC: 1.50100 cumulative IPC: 1.48307 (Simulation time: 0 hr 1 min 34 sec) 
Heartbeat CPU  0 instructions:   56000000 cycles:   37747009 heartbeat IPC: 1.51094 cumulative IPC: 1.48356 (Simulation time: 0 hr 1 min 35 sec) 
Heartbeat CPU  0 instructions:   57000003 cycles:   38408272 heartbeat IPC: 1.51226 cumulative IPC: 1.48406 (Simulation time: 0 hr 1 min 37 sec) 
Heartbeat CPU  0 instructions:   58000000 cycles:   39069766 heartbeat IPC: 1.51172 cumulative IPC: 1.48452 (Simulation time: 0 hr 1 min 39 sec) 
Heartbeat CPU  0 instructions:   59000000 cycles:   39731076 heartbeat IPC: 1.51215 cumulative IPC: 1.48498 (Simulation time: 0 hr 1 min 40 sec) 
Heartbeat CPU  0 instructions:   60000000 cycles:   40392354 heartbeat IPC: 1.51222 cumulative IPC: 1.48543 (Simulation time: 0 hr 1 min 42 sec) 
Heartbeat CPU  0 instructions:   61000001 cycles:   41054216 heartbeat IPC: 1.51089 cumulative IPC: 1.48584 (Simulation time: 0 hr 1 min 44 sec) 
Heartbeat CPU  0 instructions:   62000000 cycles:   41715634 heartbeat IPC: 1.51190 cumulative IPC: 1.48625 (Simulation time: 0 hr 1 min 46 sec) 
Heartbeat CPU  0 instructions:   63000001 cycles:   42377089 heartbeat IPC: 1.51182 cumulative IPC: 1.48665 (Simulation time: 0 hr 1 min 47 sec) 
Heartbeat CPU  0 instructions:   64000000 cycles:   43038443 heartbeat IPC: 1.51205 cumulative IPC: 1.48704 (Simulation time: 0 hr 1 min 49 sec) 
Heartbeat CPU  0 instructions:   65000003 cycles:   43699905 heartbeat IPC: 1.51181 cumulative IPC: 1.48742 (Simulation time: 0 hr 1 min 51 sec) 
Heartbeat CPU  0 instructions:   66000000 cycles:   44361219 heartbeat IPC: 1.51214 cumulative IPC: 1.48779 (Simulation time: 0 hr 1 min 52 sec) 
Heartbeat CPU  0 instructions:   67000000 cycles:   45022845 heartbeat IPC: 1.51143 cumulative IPC: 1.48813 (Simulation time: 0 hr 1 min 54 sec) 
Heartbeat CPU  0 instructions:   68000000 cycles:   45693020 heartbeat IPC: 1.49215 cumulative IPC: 1.48819 (Simulation time: 0 hr 1 min 56 sec) 
Heartbeat CPU  0 instructions:   69000002 cycles:   46363782 heartbeat IPC: 1.49084 cumulative IPC: 1.48823 (Simulation time: 0 hr 1 min 58 sec) 
Heartbeat CPU  0 instructions:   70000001 cycles:   47034855 heartbeat IPC: 1.49015 cumulative IPC: 1.48826 (Simulation time: 0 hr 1 min 59 sec) 
Heartbeat CPU  0 instructions:   71000002 cycles:   47705667 heartbeat IPC: 1.49073 cumulative IPC: 1.48829 (Simulation time: 0 hr 2 min 1 sec) 
Heartbeat CPU  0 instructions:   72000000 cycles:   48376724 heartbeat IPC: 1.49018 cumulative IPC: 1.48832 (Simulation time: 0 hr 2 min 3 sec) 
Heartbeat CPU  0 instructions:   73000002 cycles:   49047687 heartbeat IPC: 1.49040 cumulative IPC: 1.48835 (Simulation time: 0 hr 2 min 4 sec) 
Heartbeat CPU  0 instructions:   74000000 cycles:   49718479 heartbeat IPC: 1.49077 cumulative IPC: 1.48838 (Simulation time: 0 hr 2 min 6 sec) 
Heartbeat CPU  0 instructions:   75000001 cycles:   50389646 heartbeat IPC: 1.48994 cumulative IPC: 1.48840 (Simulation time: 0 hr 2 min 8 sec) 
Heartbeat CPU  0 instructions:   76000000 cycles:   51060218 heartbeat IPC: 1.49126 cumulative IPC: 1.48844 (Simulation time: 0 hr 2 min 10 sec) 
Heartbeat CPU  0 instructions:   77000000 cycles:   51731257 heartbeat IPC: 1.49023 cumulative IPC: 1.48846 (Simulation time: 0 hr 2 min 11 sec) 
Heartbeat CPU  0 instructions:   78000003 cycles:   52402162 heartbeat IPC: 1.49053 cumulative IPC: 1.48849 (Simulation time: 0 hr 2 min 13 sec) 
Heartbeat CPU  0 instructions:   79000002 cycles:   53072952 heartbeat IPC: 1.49078 cumulative IPC: 1.48852 (Simulation time: 0 hr 2 min 15 sec) 
Heartbeat CPU  0 instructions:   80000000 cycles:   53745801 heartbeat IPC: 1.48621 cumulative IPC: 1.48849 (Simulation time: 0 hr 2 min 16 sec) 
Heartbeat CPU  0 instructions:   81000003 cycles:   54419635 heartbeat IPC: 1.48405 cumulative IPC: 1.48843 (Simulation time: 0 hr 2 min 18 sec) 
Heartbeat CPU  0 instructions:   82000001 cycles:   55092827 heartbeat IPC: 1.48546 cumulative IPC: 1.48840 (Simulation time: 0 hr 2 min 20 sec) 
Heartbeat CPU  0 instructions:   83000002 cycles:   55766390 heartbeat IPC: 1.48464 cumulative IPC: 1.48835 (Simulation time: 0 hr 2 min 22 sec) 
Heartbeat CPU  0 instructions:   84000000 cycles:   56439464 heartbeat IPC: 1.48572 cumulative IPC: 1.48832 (Simulation time: 0 hr 2 min 23 sec) 
Heartbeat CPU  0 instructions:   85000000 cycles:   57113051 heartbeat IPC: 1.48459 cumulative IPC: 1.48828 (Simulation time: 0 hr 2 min 25 sec) 
Heartbeat CPU  0 instructions:   86000001 cycles:   57786403 heartbeat IPC: 1.48511 cumulative IPC: 1.48824 (Simulation time: 0 hr 2 min 27 sec) 
Heartbeat CPU  0 instructions:   87000000 cycles:   58459824 heartbeat IPC: 1.48495 cumulative IPC: 1.48820 (Simulation time: 0 hr 2 min 28 sec) 
Heartbeat CPU  0 instructions:   88000000 cycles:   59133242 heartbeat IPC: 1.48496 cumulative IPC: 1.48816 (Simulation time: 0 hr 2 min 30 sec) 
Heartbeat CPU  0 instructions:   89000002 cycles:   59806726 heartbeat IPC: 1.48482 cumulative IPC: 1.48813 (Simulation time: 0 hr 2 min 32 sec) 
Heartbeat CPU  0 instructions:   90000001 cycles:   60479867 heartbeat IPC: 1.48557 cumulative IPC: 1.48810 (Simulation time: 0 hr 2 min 34 sec) 
Heartbeat CPU  0 instructions:   91000000 cycles:   61153082 heartbeat IPC: 1.48541 cumulative IPC: 1.48807 (Simulation time: 0 hr 2 min 35 sec) 
Heartbeat CPU  0 instructions:   92000000 cycles:   61829571 heartbeat IPC: 1.47822 cumulative IPC: 1.48796 (Simulation time: 0 hr 2 min 37 sec) 
Heartbeat CPU  0 instructions:   93000001 cycles:   62508845 heartbeat IPC: 1.47216 cumulative IPC: 1.48779 (Simulation time: 0 hr 2 min 39 sec) 
Heartbeat CPU  0 instructions:   94000001 cycles:   63187981 heartbeat IPC: 1.47246 cumulative IPC: 1.48762 (Simulation time: 0 hr 2 min 40 sec) 
Heartbeat CPU  0 instructions:   95000001 cycles:   63867233 heartbeat IPC: 1.47221 cumulative IPC: 1.48746 (Simulation time: 0 hr 2 min 42 sec) 
Heartbeat CPU  0 instructions:   96000000 cycles:   64546465 heartbeat IPC: 1.47225 cumulative IPC: 1.48730 (Simulation time: 0 hr 2 min 44 sec) 
Heartbeat CPU  0 instructions:   97000000 cycles:   65225714 heartbeat IPC: 1.47221 cumulative IPC: 1.48714 (Simulation time: 0 hr 2 min 45 sec) 
Heartbeat CPU  0 instructions:   98000000 cycles:   65904954 heartbeat IPC: 1.47223 cumulative IPC: 1.48699 (Simulation time: 0 hr 2 min 47 sec) 
Heartbeat CPU  0 instructions:   99000000 cycles:   66584185 heartbeat IPC: 1.47225 cumulative IPC: 1.48684 (Simulation time: 0 hr 2 min 49 sec) 
Heartbeat CPU  0 instructions:  100000000 cycles:   67263441 heartbeat IPC: 1.47220 cumulative IPC: 1.48669 (Simulation time: 0 hr 2 min 50 sec) 

Warmup complete CPU  0 instructions:  100000001 cycles:   67263442 (Simulation time: 0 hr 2 min 50 sec) 

Heartbeat CPU  0 instructions:  101000000 cycles:   68718607 heartbeat IPC: 0.68721 cumulative IPC: 0.68721 (Simulation time: 0 hr 2 min 52 sec) 
Heartbeat CPU  0 instructions:  102000002 cycles:   70176656 heartbeat IPC: 0.68585 cumulative IPC: 0.68653 (Simulation time: 0 hr 2 min 54 sec) 
Heartbeat CPU  0 instructions:  103000001 cycles:   71633308 heartbeat IPC: 0.68651 cumulative IPC: 0.68652 (Simulation time: 0 hr 2 min 56 sec) 
Heartbeat CPU  0 instructions:  104000000 cycles:   73092841 heartbeat IPC: 0.68515 cumulative IPC: 0.68618 (Simulation time: 0 hr 2 min 58 sec) 
Heartbeat CPU  0 instructions:  105000001 cycles:   74553508 heartbeat IPC: 0.68462 cumulative IPC: 0.68586 (Simulation time: 0 hr 3 min 0 sec) 
Heartbeat CPU  0 instructions:  106000001 cycles:   76010317 heartbeat IPC: 0.68643 cumulative IPC: 0.68596 (Simulation time: 0 hr 3 min 3 sec) 
Heartbeat CPU  0 instructions:  107000002 cycles:   77621393 heartbeat IPC: 0.62070 cumulative IPC: 0.67581 (Simulation time: 0 hr 3 min 5 sec) 
Heartbeat CPU  0 instructions:  108000000 cycles:   79068417 heartbeat IPC: 0.69107 cumulative IPC: 0.67768 (Simulation time: 0 hr 3 min 7 sec) 
Heartbeat CPU  0 instructions:  109000000 cycles:   80516006 heartbeat IPC: 0.69080 cumulative IPC: 0.67911 (Simulation time: 0 hr 3 min 9 sec) 
Heartbeat CPU  0 instructions:  110000002 cycles:   81962368 heartbeat IPC: 0.69139 cumulative IPC: 0.68032 (Simulation time: 0 hr 3 min 11 sec) 
Heartbeat CPU  0 instructions:  111000000 cycles:   83408684 heartbeat IPC: 0.69141 cumulative IPC: 0.68132 (Simulation time: 0 hr 3 min 13 sec) 
Heartbeat CPU  0 instructions:  112000000 cycles:   84855364 heartbeat IPC: 0.69124 cumulative IPC: 0.68213 (Simulation time: 0 hr 3 min 15 sec) 
Heartbeat CPU  0 instructions:  113000000 cycles:   86304874 heartbeat IPC: 0.68989 cumulative IPC: 0.68272 (Simulation time: 0 hr 3 min 17 sec) 
Heartbeat CPU  0 instructions:  114000002 cycles:   87752672 heartbeat IPC: 0.69071 cumulative IPC: 0.68329 (Simulation time: 0 hr 3 min 19 sec) 
Heartbeat CPU  0 instructions:  115000002 cycles:   89192757 heartbeat IPC: 0.69440 cumulative IPC: 0.68402 (Simulation time: 0 hr 3 min 21 sec) 
Heartbeat CPU  0 instructions:  116000000 cycles:   90635308 heartbeat IPC: 0.69322 cumulative IPC: 0.68458 (Simulation time: 0 hr 3 min 23 sec) 
Heartbeat CPU  0 instructions:  117000002 cycles:   92075651 heartbeat IPC: 0.69428 cumulative IPC: 0.68515 (Simulation time: 0 hr 3 min 25 sec) 
Heartbeat CPU  0 instructions:  118000000 cycles:   93520081 heartbeat IPC: 0.69231 cumulative IPC: 0.68554 (Simulation time: 0 hr 3 min 27 sec) 
Heartbeat CPU  0 instructions:  119000000 cycles:   94959166 heartbeat IPC: 0.69489 cumulative IPC: 0.68603 (Simulation time: 0 hr 3 min 28 sec) 
Heartbeat CPU  0 instructions:  120000000 cycles:   96406878 heartbeat IPC: 0.69075 cumulative IPC: 0.68626 (Simulation time: 0 hr 3 min 30 sec) 
Heartbeat CPU  0 instructions:  121000002 cycles:   97852199 heartbeat IPC: 0.69189 cumulative IPC: 0.68653 (Simulation time: 0 hr 3 min 32 sec) 
Heartbeat CPU  0 instructions:  122000002 cycles:   99299068 heartbeat IPC: 0.69115 cumulative IPC: 0.68674 (Simulation time: 0 hr 3 min 34 sec) 
Heartbeat CPU  0 instructions:  123000003 cycles:  101004503 heartbeat IPC: 0.58636 cumulative IPC: 0.68166 (Simulation time: 0 hr 3 min 36 sec) 
Heartbeat CPU  0 instructions:  124000000 cycles:  103049990 heartbeat IPC: 0.48888 cumulative IPC: 0.67064 (Simulation time: 0 hr 3 min 38 sec) 
Heartbeat CPU  0 instructions:  125000000 cycles:  105528894 heartbeat IPC: 0.40340 cumulative IPC: 0.65333 (Simulation time: 0 hr 3 min 40 sec) 
Heartbeat CPU  0 instructions:  126000001 cycles:  108121815 heartbeat IPC: 0.38567 cumulative IPC: 0.63634 (Simulation time: 0 hr 3 min 42 sec) 
Heartbeat CPU  0 instructions:  127000001 cycles:  110670519 heartbeat IPC: 0.39236 cumulative IPC: 0.62202 (Simulation time: 0 hr 3 min 45 sec) 
Heartbeat CPU  0 instructions:  128000000 cycles:  113247967 heartbeat IPC: 0.38798 cumulative IPC: 0.60890 (Simulation time: 0 hr 3 min 47 sec) 
Heartbeat CPU  0 instructions:  129000003 cycles:  115847262 heartbeat IPC: 0.38472 cumulative IPC: 0.59691 (Simulation time: 0 hr 3 min 49 sec) 
Heartbeat CPU  0 instructions:  130000002 cycles:  118422587 heartbeat IPC: 0.38830 cumulative IPC: 0.58641 (Simulation time: 0 hr 3 min 51 sec) 
Heartbeat CPU  0 instructions:  131000000 cycles:  120999137 heartbeat IPC: 0.38812 cumulative IPC: 0.57690 (Simulation time: 0 hr 3 min 53 sec) 
Heartbeat CPU  0 instructions:  132000000 cycles:  123562333 heartbeat IPC: 0.39014 cumulative IPC: 0.56839 (Simulation time: 0 hr 3 min 55 sec) 
Heartbeat CPU  0 instructions:  133000000 cycles:  126132880 heartbeat IPC: 0.38902 cumulative IPC: 0.56056 (Simulation time: 0 hr 3 min 57 sec) 
Heartbeat CPU  0 instructions:  134000002 cycles:  128694162 heartbeat IPC: 0.39043 cumulative IPC: 0.55347 (Simulation time: 0 hr 3 min 59 sec) 
Heartbeat CPU  0 instructions:  135000001 cycles:  131255070 heartbeat IPC: 0.39049 cumulative IPC: 0.54695 (Simulation time: 0 hr 4 min 2 sec) 
Heartbeat CPU  0 instructions:  136000000 cycles:  133813920 heartbeat IPC: 0.39080 cumulative IPC: 0.54094 (Simulation time: 0 hr 4 min 4 sec) 
Heartbeat CPU  0 instructions:  137000002 cycles:  136374471 heartbeat IPC: 0.39054 cumulative IPC: 0.53537 (Simulation time: 0 hr 4 min 6 sec) 
Heartbeat CPU  0 instructions:  138000000 cycles:  138951138 heartbeat IPC: 0.38810 cumulative IPC: 0.53008 (Simulation time: 0 hr 4 min 8 sec) 
Heartbeat CPU  0 instructions:  139000003 cycles:  141546021 heartbeat IPC: 0.38537 cumulative IPC: 0.52502 (Simulation time: 0 hr 4 min 10 sec) 
Heartbeat CPU  0 instructions:  140000000 cycles:  144145182 heartbeat IPC: 0.38474 cumulative IPC: 0.52028 (Simulation time: 0 hr 4 min 12 sec) 
Heartbeat CPU  0 instructions:  141000000 cycles:  146718191 heartbeat IPC: 0.38865 cumulative IPC: 0.51602 (Simulation time: 0 hr 4 min 14 sec) 
Heartbeat CPU  0 instructions:  142000001 cycles:  149282559 heartbeat IPC: 0.38996 cumulative IPC: 0.51208 (Simulation time: 0 hr 4 min 17 sec) 
Heartbeat CPU  0 instructions:  143000001 cycles:  151885763 heartbeat IPC: 0.38414 cumulative IPC: 0.50814 (Simulation time: 0 hr 4 min 19 sec) 
Heartbeat CPU  0 instructions:  144000000 cycles:  154498013 heartbeat IPC: 0.38281 cumulative IPC: 0.50439 (Simulation time: 0 hr 4 min 21 sec) 
Heartbeat CPU  0 instructions:  145000002 cycles:  157080579 heartbeat IPC: 0.38721 cumulative IPC: 0.50102 (Simulation time: 0 hr 4 min 23 sec) 
Heartbeat CPU  0 instructions:  146000000 cycles:  159698236 heartbeat IPC: 0.38202 cumulative IPC: 0.49765 (Simulation time: 0 hr 4 min 25 sec) 
Heartbeat CPU  0 instructions:  147000000 cycles:  162312436 heartbeat IPC: 0.38253 cumulative IPC: 0.49448 (Simulation time: 0 hr 4 min 27 sec) 
Heartbeat CPU  0 instructions:  148000000 cycles:  165099749 heartbeat IPC: 0.35877 cumulative IPC: 0.49062 (Simulation time: 0 hr 4 min 29 sec) 
Heartbeat CPU  0 instructions:  149000000 cycles:  168348188 heartbeat IPC: 0.30784 cumulative IPC: 0.48474 (Simulation time: 0 hr 4 min 32 sec) 
Heartbeat CPU  0 instructions:  150000002 cycles:  171438554 heartbeat IPC: 0.32359 cumulative IPC: 0.47996 (Simulation time: 0 hr 4 min 34 sec) 
Heartbeat CPU  0 instructions:  151000001 cycles:  174645908 heartbeat IPC: 0.31178 cumulative IPC: 0.47494 (Simulation time: 0 hr 4 min 36 sec) 
Heartbeat CPU  0 instructions:  152000000 cycles:  177704204 heartbeat IPC: 0.32698 cumulative IPC: 0.47084 (Simulation time: 0 hr 4 min 39 sec) 
Heartbeat CPU  0 instructions:  153000002 cycles:  180896489 heartbeat IPC: 0.31326 cumulative IPC: 0.46641 (Simulation time: 0 hr 4 min 41 sec) 
Heartbeat CPU  0 instructions:  154000003 cycles:  183935871 heartbeat IPC: 0.32901 cumulative IPC: 0.46283 (Simulation time: 0 hr 4 min 43 sec) 
Heartbeat CPU  0 instructions:  155000003 cycles:  187129760 heartbeat IPC: 0.31310 cumulative IPC: 0.45884 (Simulation time: 0 hr 4 min 46 sec) 
Heartbeat CPU  0 instructions:  156000000 cycles:  190201774 heartbeat IPC: 0.32552 cumulative IPC: 0.45551 (Simulation time: 0 hr 4 min 48 sec) 
Heartbeat CPU  0 instructions:  157000001 cycles:  193427217 heartbeat IPC: 0.31004 cumulative IPC: 0.45179 (Simulation time: 0 hr 4 min 50 sec) 
Heartbeat CPU  0 instructions:  158000001 cycles:  196510611 heartbeat IPC: 0.32432 cumulative IPC: 0.44875 (Simulation time: 0 hr 4 min 53 sec) 
Heartbeat CPU  0 instructions:  159000001 cycles:  199721921 heartbeat IPC: 0.31140 cumulative IPC: 0.44542 (Simulation time: 0 hr 4 min 55 sec) 
Heartbeat CPU  0 instructions:  160000000 cycles:  202808144 heartbeat IPC: 0.32402 cumulative IPC: 0.44266 (Simulation time: 0 hr 4 min 57 sec) 
Heartbeat CPU  0 instructions:  161000002 cycles:  206010740 heartbeat IPC: 0.31225 cumulative IPC: 0.43965 (Simulation time: 0 hr 5 min 0 sec) 
Heartbeat CPU  0 instructions:  162000002 cycles:  209113099 heartbeat IPC: 0.32234 cumulative IPC: 0.43708 (Simulation time: 0 hr 5 min 2 sec) 
Heartbeat CPU  0 instructions:  163000003 cycles:  212373730 heartbeat IPC: 0.30669 cumulative IPC: 0.43415 (Simulation time: 0 hr 5 min 4 sec) 
Heartbeat CPU  0 instructions:  164000000 cycles:  215455577 heartbeat IPC: 0.32448 cumulative IPC: 0.43187 (Simulation time: 0 hr 5 min 7 sec) 
Heartbeat CPU  0 instructions:  165000000 cycles:  218665409 heartbeat IPC: 0.31154 cumulative IPC: 0.42932 (Simulation time: 0 hr 5 min 9 sec) 
Heartbeat CPU  0 instructions:  166000002 cycles:  221743035 heartbeat IPC: 0.32493 cumulative IPC: 0.42724 (Simulation time: 0 hr 5 min 11 sec) 
Heartbeat CPU  0 instructions:  167000001 cycles:  224957126 heartbeat IPC: 0.31113 cumulative IPC: 0.42487 (Simulation time: 0 hr 5 min 14 sec) 
Heartbeat CPU  0 instructions:  168000000 cycles:  228056339 heartbeat IPC: 0.32266 cumulative IPC: 0.42290 (Simulation time: 0 hr 5 min 16 sec) 
Heartbeat CPU  0 instructions:  169000002 cycles:  231213199 heartbeat IPC: 0.31677 cumulative IPC: 0.42086 (Simulation time: 0 hr 5 min 18 sec) 
Heartbeat CPU  0 instructions:  170000003 cycles:  234315351 heartbeat IPC: 0.32236 cumulative IPC: 0.41903 (Simulation time: 0 hr 5 min 20 sec) 
Heartbeat CPU  0 instructions:  171000001 cycles:  237439751 heartbeat IPC: 0.32006 cumulative IPC: 0.41721 (Simulation time: 0 hr 5 min 23 sec) 
Heartbeat CPU  0 instructions:  172000000 cycles:  240566730 heartbeat IPC: 0.31980 cumulative IPC: 0.41546 (Simulation time: 0 hr 5 min 25 sec) 
Heartbeat CPU  0 instructions:  173000001 cycles:  243645654 heartbeat IPC: 0.32479 cumulative IPC: 0.41387 (Simulation time: 0 hr 5 min 27 sec) 
Heartbeat CPU  0 instructions:  174000001 cycles:  246863970 heartbeat IPC: 0.31072 cumulative IPC: 0.41203 (Simulation time: 0 hr 5 min 30 sec) 
Heartbeat CPU  0 instructions:  175000003 cycles:  249941698 heartbeat IPC: 0.32492 cumulative IPC: 0.41056 (Simulation time: 0 hr 5 min 32 sec) 
Heartbeat CPU  0 instructions:  176000000 cycles:  253140616 heartbeat IPC: 0.31260 cumulative IPC: 0.40887 (Simulation time: 0 hr 5 min 34 sec) 
Heartbeat CPU  0 instructions:  177000003 cycles:  256190876 heartbeat IPC: 0.32784 cumulative IPC: 0.40756 (Simulation time: 0 hr 5 min 37 sec) 
Heartbeat CPU  0 instructions:  178000000 cycles:  259393744 heartbeat IPC: 0.31222 cumulative IPC: 0.40597 (Simulation time: 0 hr 5 min 39 sec) 
Heartbeat CPU  0 instructions:  179000001 cycles:  262457578 heartbeat IPC: 0.32639 cumulative IPC: 0.40473 (Simulation time: 0 hr 5 min 41 sec) 
Heartbeat CPU  0 instructions:  180000000 cycles:  265694520 heartbeat IPC: 0.30893 cumulative IPC: 0.40316 (Simulation time: 0 hr 5 min 44 sec) 
Heartbeat CPU  0 instructions:  181000001 cycles:  268768403 heartbeat IPC: 0.32532 cumulative IPC: 0.40198 (Simulation time: 0 hr 5 min 46 sec) 
Heartbeat CPU  0 instructions:  182000001 cycles:  271983737 heartbeat IPC: 0.31101 cumulative IPC: 0.40055 (Simulation time: 0 hr 5 min 48 sec) 
Heartbeat CPU  0 instructions:  183000002 cycles:  275057527 heartbeat IPC: 0.32533 cumulative IPC: 0.39943 (Simulation time: 0 hr 5 min 51 sec) 
Heartbeat CPU  0 instructions:  184000000 cycles:  278283712 heartbeat IPC: 0.30996 cumulative IPC: 0.39807 (Simulation time: 0 hr 5 min 53 sec) 
Heartbeat CPU  0 instructions:  185000003 cycles:  281342488 heartbeat IPC: 0.32693 cumulative IPC: 0.39705 (Simulation time: 0 hr 5 min 55 sec) 
Heartbeat CPU  0 instructions:  186000003 cycles:  284555893 heartbeat IPC: 0.31120 cumulative IPC: 0.39578 (Simulation time: 0 hr 5 min 58 sec) 
Heartbeat CPU  0 instructions:  187000000 cycles:  287626180 heartbeat IPC: 0.32570 cumulative IPC: 0.39480 (Simulation time: 0 hr 6 min 0 sec) 
Heartbeat CPU  0 instructions:  188000000 cycles:  290835927 heartbeat IPC: 0.31155 cumulative IPC: 0.39361 (Simulation time: 0 hr 6 min 2 sec) 
Heartbeat CPU  0 instructions:  189000001 cycles:  293896989 heartbeat IPC: 0.32668 cumulative IPC: 0.39270 (Simulation time: 0 hr 6 min 4 sec) 
Heartbeat CPU  0 instructions:  190000001 cycles:  297124675 heartbeat IPC: 0.30982 cumulative IPC: 0.39154 (Simulation time: 0 hr 6 min 7 sec) 
Heartbeat CPU  0 instructions:  191000002 cycles:  300221732 heartbeat IPC: 0.32289 cumulative IPC: 0.39063 (Simulation time: 0 hr 6 min 9 sec) 
Heartbeat CPU  0 instructions:  192000000 cycles:  303416254 heartbeat IPC: 0.31304 cumulative IPC: 0.38958 (Simulation time: 0 hr 6 min 11 sec) 
Heartbeat CPU  0 instructions:  193000003 cycles:  306462004 heartbeat IPC: 0.32833 cumulative IPC: 0.38880 (Simulation time: 0 hr 6 min 14 sec) 
Heartbeat CPU  0 instructions:  194000000 cycles:  309680913 heartbeat IPC: 0.31066 cumulative IPC: 0.38776 (Simulation time: 0 hr 6 min 16 sec) 
Heartbeat CPU  0 instructions:  195000000 cycles:  312717939 heartbeat IPC: 0.32927 cumulative IPC: 0.38704 (Simulation time: 0 hr 6 min 18 sec) 
Heartbeat CPU  0 instructions:  196000000 cycles:  315902664 heartbeat IPC: 0.31400 cumulative IPC: 0.38610 (Simulation time: 0 hr 6 min 21 sec) 
Heartbeat CPU  0 instructions:  197000002 cycles:  318991232 heartbeat IPC: 0.32378 cumulative IPC: 0.38534 (Simulation time: 0 hr 6 min 23 sec) 
Heartbeat CPU  0 instructions:  198000001 cycles:  322179110 heartbeat IPC: 0.31369 cumulative IPC: 0.38444 (Simulation time: 0 hr 6 min 25 sec) 
Heartbeat CPU  0 instructions:  199000002 cycles:  325254439 heartbeat IPC: 0.32517 cumulative IPC: 0.38373 (Simulation time: 0 hr 6 min 28 sec) 
Heartbeat CPU  0 instructions:  200000000 cycles:  328473518 heartbeat IPC: 0.31065 cumulative IPC: 0.38283 (Simulation time: 0 hr 6 min 30 sec) 
Finished CPU 0 instructions: 100000001 cycles: 261210084 cumulative IPC: 0.38283 (Simulation time: 0 hr 6 min 30 sec) 

ChampSim completed all CPUs

[ROI Statistics]
Core_0_instructions 100000001
Core_0_cycles 261210084
Core_0_IPC 0.38283

Core_0_branch_prediction_accuracy 99.52414
Core_0_branch_MPKI 0.08716
Core_0_average_ROB_occupancy_at_mispredict 253.66785

Core_0_L1D_total_access 31835100
Core_0_L1D_total_hit 29439708
Core_0_L1D_total_miss 2395392
Core_0_L1D_loads 25712787
Core_0_L1D_load_hit 23317420
Core_0_L1D_load_miss 2395367
Core_0_L1D_RFOs 6122313
Core_0_L1D_RFO_hit 6122288
Core_0_L1D_RFO_miss 25
Core_0_L1D_prefetches 0
Core_0_L1D_prefetch_hit 0
Core_0_L1D_prefetch_miss 0
Core_0_L1D_writebacks 0
Core_0_L1D_writeback_hit 0
Core_0_L1D_writeback_miss 0
Core_0_L1D_prefetch_requested 0
Core_0_L1D_prefetch_issued 0
Core_0_L1D_prefetch_useful 0
Core_0_L1D_prefetch_useless 0
Core_0_L1D_prefetch_late 0
Core_0_L1D_average_miss_latency 225.33052

Core_0_L1I_total_access 21686119
Core_0_L1I_total_hit 21686042
Core_0_L1I_total_miss 77
Core_0_L1I_loads 21686119
Core_0_L1I_load_hit 21686042
Core_0_L1I_load_miss 77
Core_0_L1I_RFOs 0
Core_0_L1I_RFO_hit 0
Core_0_L1I_RFO_miss 0
Core_0_L1I_prefetches 0
Core_0_L1I_prefetch_hit 0
Core_0_L1I_prefetch_miss 0
Core_0_L1I_writebacks 0
Core_0_L1I_writeback_hit 0
Core_0_L1I_writeback_miss 0
Core_0_L1I_prefetch_requested 0
Core_0_L1I_prefetch_issued 0
Core_0_L1I_prefetch_useful 0
Core_0_L1I_prefetch_useless 0
Core_0_L1I_prefetch_late 0
Core_0_L1I_average_miss_latency 219.63636

Core_0_L2C_total_access 3075728
Core_0_L2C_total_hit 1196106
Core_0_L2C_total_miss 1879622
Core_0_L2C_loads 2395443
Core_0_L2C_load_hit 515960
Core_0_L2C_load_miss 1879483
Core_0_L2C_RFOs 25
Core_0_L2C_RFO_hit 0
Core_0_L2C_RFO_miss 25
Core_0_L2C_prefetches 0
Core_0_L2C_prefetch_hit 0
Core_0_L2C_prefetch_miss 0
Core_0_L2C_writebacks 680260
Core_0_L2C_writeback_hit 680146
Core_0_L2C_writeback_miss 114
Core_0_L2C_prefetch_requested 0
Core_0_L2C_prefetch_issued 0
Core_0_L2C_prefetch_useful 0
Core_0_L2C_prefetch_useless 0
Core_0_L2C_prefetch_late 0
Core_0_L2C_average_miss_latency 268.74750

Core_0_LLC_total_access 2554811
Core_0_LLC_total_hit 690393
Core_0_LLC_total_miss 1864418
Core_0_LLC_loads 1879483
Core_0_LLC_load_hit 15202
Core_0_LLC_load_miss 1864281
Core_0_LLC_RFOs 25
Core_0_LLC_RFO_hit 1
Core_0_LLC_RFO_miss 24
Core_0_LLC_prefetches 0
Core_0_LLC_prefetch_hit 0
Core_0_LLC_prefetch_miss 0
Core_0_LLC_writebacks 675303
Core_0_LLC_writeback_hit 675190
Core_0_LLC_writeback_miss 113
Core_0_LLC_prefetch_requested 0
Core_0_LLC_prefetch_issued 0
Core_0_LLC_prefetch_useful 0
Core_0_LLC_prefetch_useless 0
Core_0_LLC_prefetch_late 0
Core_0_LLC_average_miss_latency 240.55137

Core_0_major_page_fault 0
Core_0_minor_page_fault 80857

Channel_0_RQ_row_buffer_hit 351085
Channel_0_RQ_row_buffer_miss 1513220
Channel_0_WQ_row_buffer_hit 493596
Channel_0_WQ_row_buffer_miss 172992
Channel_0_WQ_full 0
Channel_0_dbus_congested 694598

avg_congested_cycle 10
