*************************************************
   ChampSim Multicore Out-of-Order Simulator
   Last compiled: Dec 25 2023 17:57:59
*************************************************

trace_0 ./test_trace/459.GemsFDTD-1320B.champsimtrace.xz
CPU 0 L1D next line prefetcher
Initialize DRRIP state
Assign rand_sets[0]: 454  LLC: 2048
rand_sets[0]: 454
Assign rand_sets[1]: 1662  LLC: 2048
rand_sets[1]: 1662
Assign rand_sets[2]: 1921  LLC: 2048
rand_sets[2]: 1921
Assign rand_sets[3]: 1131  LLC: 2048
rand_sets[3]: 1131
Assign rand_sets[4]: 331  LLC: 2048
rand_sets[4]: 331
Assign rand_sets[5]: 1531  LLC: 2048
rand_sets[5]: 1531
Assign rand_sets[6]: 482  LLC: 2048
rand_sets[6]: 482
Assign rand_sets[7]: 1275  LLC: 2048
rand_sets[7]: 1275
Assign rand_sets[8]: 1876  LLC: 2048
rand_sets[8]: 1876
Assign rand_sets[9]: 2038  LLC: 2048
rand_sets[9]: 2038
Assign rand_sets[10]: 701  LLC: 2048
rand_sets[10]: 701
Assign rand_sets[11]: 479  LLC: 2048
rand_sets[11]: 479
Assign rand_sets[12]: 892  LLC: 2048
rand_sets[12]: 892
Assign rand_sets[13]: 1820  LLC: 2048
rand_sets[13]: 1820
Assign rand_sets[14]: 1505  LLC: 2048
rand_sets[14]: 1505
Assign rand_sets[15]: 1159  LLC: 2048
rand_sets[15]: 1159
Assign rand_sets[16]: 513  LLC: 2048
rand_sets[16]: 513
Assign rand_sets[17]: 703  LLC: 2048
rand_sets[17]: 703
Assign rand_sets[18]: 561  LLC: 2048
rand_sets[18]: 561
Assign rand_sets[19]: 990  LLC: 2048
rand_sets[19]: 990
Assign rand_sets[20]: 342  LLC: 2048
rand_sets[20]: 342
Assign rand_sets[21]: 882  LLC: 2048
rand_sets[21]: 882
Assign rand_sets[22]: 15  LLC: 2048
rand_sets[22]: 15
Assign rand_sets[23]: 71  LLC: 2048
rand_sets[23]: 71
Assign rand_sets[24]: 1127  LLC: 2048
rand_sets[24]: 1127
Assign rand_sets[25]: 1382  LLC: 2048
rand_sets[25]: 1382
Assign rand_sets[26]: 647  LLC: 2048
rand_sets[26]: 647
Assign rand_sets[27]: 857  LLC: 2048
rand_sets[27]: 857
Assign rand_sets[28]: 1450  LLC: 2048
rand_sets[28]: 1450
Assign rand_sets[29]: 1160  LLC: 2048
rand_sets[29]: 1160
Assign rand_sets[30]: 1852  LLC: 2048
rand_sets[30]: 1852
Assign rand_sets[31]: 1881  LLC: 2048
rand_sets[31]: 1881
Assign rand_sets[32]: 1770  LLC: 2048
rand_sets[32]: 1770
Assign rand_sets[33]: 1622  LLC: 2048
rand_sets[33]: 1622
Assign rand_sets[34]: 275  LLC: 2048
rand_sets[34]: 275
Assign rand_sets[35]: 635  LLC: 2048
rand_sets[35]: 635
Assign rand_sets[36]: 466  LLC: 2048
rand_sets[36]: 466
Assign rand_sets[37]: 1413  LLC: 2048
rand_sets[37]: 1413
Assign rand_sets[38]: 417  LLC: 2048
rand_sets[38]: 417
Assign rand_sets[39]: 472  LLC: 2048
rand_sets[39]: 472
Assign rand_sets[40]: 1340  LLC: 2048
rand_sets[40]: 1340
Assign rand_sets[41]: 852  LLC: 2048
rand_sets[41]: 852
Assign rand_sets[42]: 1365  LLC: 2048
rand_sets[42]: 1365
Assign rand_sets[43]: 47  LLC: 2048
rand_sets[43]: 47
Assign rand_sets[44]: 823  LLC: 2048
rand_sets[44]: 823
Assign rand_sets[45]: 686  LLC: 2048
rand_sets[45]: 686
Assign rand_sets[46]: 1637  LLC: 2048
rand_sets[46]: 1637
Assign rand_sets[47]: 1115  LLC: 2048
rand_sets[47]: 1115
Assign rand_sets[48]: 986  LLC: 2048
rand_sets[48]: 986
Assign rand_sets[49]: 258  LLC: 2048
rand_sets[49]: 258
Assign rand_sets[50]: 633  LLC: 2048
rand_sets[50]: 633
Assign rand_sets[51]: 920  LLC: 2048
rand_sets[51]: 920
Assign rand_sets[52]: 204  LLC: 2048
rand_sets[52]: 204
Assign rand_sets[53]: 227  LLC: 2048
rand_sets[53]: 227
Assign rand_sets[54]: 1818  LLC: 2048
rand_sets[54]: 1818
Assign rand_sets[55]: 886  LLC: 2048
rand_sets[55]: 886
Assign rand_sets[56]: 1422  LLC: 2048
rand_sets[56]: 1422
Assign rand_sets[57]: 607  LLC: 2048
rand_sets[57]: 607
Assign rand_sets[58]: 217  LLC: 2048
rand_sets[58]: 217
Assign rand_sets[59]: 1945  LLC: 2048
rand_sets[59]: 1945
Assign rand_sets[60]: 143  LLC: 2048
rand_sets[60]: 143
Assign rand_sets[61]: 1311  LLC: 2048
rand_sets[61]: 1311
Assign rand_sets[62]: 319  LLC: 2048
rand_sets[62]: 319
Assign rand_sets[63]: 1846  LLC: 2048
rand_sets[63]: 1846
warmup_instructions 100000000
simulation_instructions 100000000
champsim_seed 264

num_cpus 1
cpu_freq 4000
dram_io_freq 2400
page_size 4096
block_size 64
max_read_per_cycle 8
max_fill_per_cycle 1
dram_channels 1
dram_ranks 1
dram_banks 8
dram_rows 65536
dram_columns 128
dram_row_size 8
dram_size 4096
dram_pages 1048576

fetch_width 6
decode_width 6
exec_width 4
lq_width 2
sq_width 2
retire_width 4
scheduler_size 128
branch_mispredict_penalty 20
rob_size 256
lq_size 72
sq_size 56
num_instr_destinations_sparc 4
num_instr_destinations 2
num_instr_sources 4

itlb_set 16
itlb_way 8
itlb_rq_size 16
itlb_wq_size 16
itlb_pq_size 0
itlb_mshr_size 8
itlb_latency 1

dtlb_set 16
dtlb_way 4
dtlb_rq_size 16
dtlb_wq_size 16
dtlb_pq_size 0
dtlb_mshr_size 8
dtlb_latency 1

stlb_set 128
stlb_way 12
stlb_rq_size 32
stlb_wq_size 32
stlb_pq_size 0
stlb_mshr_size 16
stlb_latency 8

l1i_size 32
l1i_set 64
l1i_way 8
l1i_rq_size 64
l1i_wq_size 64
l1i_pq_size 8
l1i_mshr_size 8
l1i_latency 1

l1d_size 32
l1d_set 64
l1d_way 8
l1d_rq_size 64
l1d_wq_size 64
l1d_pq_size 8
l1d_mshr_size 16
l1d_latency 4

l2c_size 512
l2c_set 1024
l2c_way 8
l2c_rq_size 32
l2c_wq_size 32
l2c_pq_size 16
l2c_mshr_size 32
l2c_latency 10

llc_size 2048
llc_set 2048
llc_way 16
llc_rq_size 32
llc_wq_size 32
llc_pq_size 32
llc_mshr_size 64
llc_latency 20

dram_channel_width 8
dram_wq_size 64
dram_rq_size 64
tRP 15
tRCD 15
tCAS 12.5
dram_dbus_turn_around_time 30
dram_write_high_wm 56
dram_write_low_wm 48
min_dram_writes_per_switch 16
dram_mtps 2400
dram_dbus_return_time 13


Heartbeat CPU  0 instructions:    1000000 cycles:     673450 heartbeat IPC: 1.48489 cumulative IPC: 1.48489 (Simulation time: 0 hr 0 min 2 sec) 
Heartbeat CPU  0 instructions:    2000003 cycles:    1346187 heartbeat IPC: 1.48647 cumulative IPC: 1.48568 (Simulation time: 0 hr 0 min 4 sec) 
Heartbeat CPU  0 instructions:    3000002 cycles:    2018942 heartbeat IPC: 1.48642 cumulative IPC: 1.48593 (Simulation time: 0 hr 0 min 6 sec) 
Heartbeat CPU  0 instructions:    4000000 cycles:    2691747 heartbeat IPC: 1.48631 cumulative IPC: 1.48602 (Simulation time: 0 hr 0 min 8 sec) 
Heartbeat CPU  0 instructions:    5000001 cycles:    3364662 heartbeat IPC: 1.48607 cumulative IPC: 1.48603 (Simulation time: 0 hr 0 min 9 sec) 
Heartbeat CPU  0 instructions:    6000001 cycles:    4037060 heartbeat IPC: 1.48721 cumulative IPC: 1.48623 (Simulation time: 0 hr 0 min 11 sec) 
Heartbeat CPU  0 instructions:    7000001 cycles:    4709546 heartbeat IPC: 1.48702 cumulative IPC: 1.48634 (Simulation time: 0 hr 0 min 13 sec) 
Heartbeat CPU  0 instructions:    8000000 cycles:    5382041 heartbeat IPC: 1.48700 cumulative IPC: 1.48642 (Simulation time: 0 hr 0 min 15 sec) 
Heartbeat CPU  0 instructions:    9000003 cycles:    6054708 heartbeat IPC: 1.48662 cumulative IPC: 1.48645 (Simulation time: 0 hr 0 min 16 sec) 
Heartbeat CPU  0 instructions:   10000003 cycles:    6727514 heartbeat IPC: 1.48631 cumulative IPC: 1.48643 (Simulation time: 0 hr 0 min 18 sec) 
Heartbeat CPU  0 instructions:   11000003 cycles:    7400181 heartbeat IPC: 1.48662 cumulative IPC: 1.48645 (Simulation time: 0 hr 0 min 20 sec) 
Heartbeat CPU  0 instructions:   12000000 cycles:    8072850 heartbeat IPC: 1.48661 cumulative IPC: 1.48646 (Simulation time: 0 hr 0 min 22 sec) 
Heartbeat CPU  0 instructions:   13000000 cycles:    8750534 heartbeat IPC: 1.47561 cumulative IPC: 1.48562 (Simulation time: 0 hr 0 min 23 sec) 
Heartbeat CPU  0 instructions:   14000002 cycles:    9429426 heartbeat IPC: 1.47299 cumulative IPC: 1.48471 (Simulation time: 0 hr 0 min 25 sec) 
Heartbeat CPU  0 instructions:   15000000 cycles:   10108463 heartbeat IPC: 1.47267 cumulative IPC: 1.48391 (Simulation time: 0 hr 0 min 27 sec) 
Heartbeat CPU  0 instructions:   16000000 cycles:   10787494 heartbeat IPC: 1.47269 cumulative IPC: 1.48320 (Simulation time: 0 hr 0 min 29 sec) 
Heartbeat CPU  0 instructions:   17000002 cycles:   11466617 heartbeat IPC: 1.47249 cumulative IPC: 1.48256 (Simulation time: 0 hr 0 min 30 sec) 
Heartbeat CPU  0 instructions:   18000003 cycles:   12145608 heartbeat IPC: 1.47278 cumulative IPC: 1.48202 (Simulation time: 0 hr 0 min 32 sec) 
Heartbeat CPU  0 instructions:   19000003 cycles:   12824625 heartbeat IPC: 1.47272 cumulative IPC: 1.48153 (Simulation time: 0 hr 0 min 34 sec) 
Heartbeat CPU  0 instructions:   20000000 cycles:   13503713 heartbeat IPC: 1.47256 cumulative IPC: 1.48107 (Simulation time: 0 hr 0 min 36 sec) 
Heartbeat CPU  0 instructions:   21000002 cycles:   14182816 heartbeat IPC: 1.47253 cumulative IPC: 1.48067 (Simulation time: 0 hr 0 min 37 sec) 
Heartbeat CPU  0 instructions:   22000000 cycles:   14861842 heartbeat IPC: 1.47269 cumulative IPC: 1.48030 (Simulation time: 0 hr 0 min 39 sec) 
Heartbeat CPU  0 instructions:   23000000 cycles:   15540858 heartbeat IPC: 1.47272 cumulative IPC: 1.47997 (Simulation time: 0 hr 0 min 41 sec) 
Heartbeat CPU  0 instructions:   24000000 cycles:   16219901 heartbeat IPC: 1.47266 cumulative IPC: 1.47966 (Simulation time: 0 hr 0 min 43 sec) 
Heartbeat CPU  0 instructions:   25000001 cycles:   16899037 heartbeat IPC: 1.47246 cumulative IPC: 1.47937 (Simulation time: 0 hr 0 min 44 sec) 
Heartbeat CPU  0 instructions:   26000001 cycles:   17578077 heartbeat IPC: 1.47267 cumulative IPC: 1.47912 (Simulation time: 0 hr 0 min 46 sec) 
Heartbeat CPU  0 instructions:   27000001 cycles:   18257072 heartbeat IPC: 1.47276 cumulative IPC: 1.47888 (Simulation time: 0 hr 0 min 48 sec) 
Heartbeat CPU  0 instructions:   28000000 cycles:   18935416 heartbeat IPC: 1.47418 cumulative IPC: 1.47871 (Simulation time: 0 hr 0 min 50 sec) 
Heartbeat CPU  0 instructions:   29000002 cycles:   19612082 heartbeat IPC: 1.47784 cumulative IPC: 1.47868 (Simulation time: 0 hr 0 min 51 sec) 
Heartbeat CPU  0 instructions:   30000000 cycles:   20288743 heartbeat IPC: 1.47784 cumulative IPC: 1.47865 (Simulation time: 0 hr 0 min 53 sec) 
Heartbeat CPU  0 instructions:   31000000 cycles:   20965353 heartbeat IPC: 1.47796 cumulative IPC: 1.47863 (Simulation time: 0 hr 0 min 55 sec) 
Heartbeat CPU  0 instructions:   32000000 cycles:   21641929 heartbeat IPC: 1.47803 cumulative IPC: 1.47861 (Simulation time: 0 hr 0 min 57 sec) 
Heartbeat CPU  0 instructions:   33000002 cycles:   22318717 heartbeat IPC: 1.47757 cumulative IPC: 1.47858 (Simulation time: 0 hr 0 min 58 sec) 
Heartbeat CPU  0 instructions:   34000000 cycles:   22995394 heartbeat IPC: 1.47781 cumulative IPC: 1.47856 (Simulation time: 0 hr 1 min 0 sec) 
Heartbeat CPU  0 instructions:   35000002 cycles:   23672125 heartbeat IPC: 1.47769 cumulative IPC: 1.47853 (Simulation time: 0 hr 1 min 2 sec) 
Heartbeat CPU  0 instructions:   36000000 cycles:   24348760 heartbeat IPC: 1.47790 cumulative IPC: 1.47851 (Simulation time: 0 hr 1 min 4 sec) 
Heartbeat CPU  0 instructions:   37000000 cycles:   25025592 heartbeat IPC: 1.47747 cumulative IPC: 1.47849 (Simulation time: 0 hr 1 min 5 sec) 
Heartbeat CPU  0 instructions:   38000000 cycles:   25702220 heartbeat IPC: 1.47792 cumulative IPC: 1.47847 (Simulation time: 0 hr 1 min 7 sec) 
Heartbeat CPU  0 instructions:   39000002 cycles:   26378953 heartbeat IPC: 1.47769 cumulative IPC: 1.47845 (Simulation time: 0 hr 1 min 9 sec) 
Heartbeat CPU  0 instructions:   40000000 cycles:   27055720 heartbeat IPC: 1.47761 cumulative IPC: 1.47843 (Simulation time: 0 hr 1 min 11 sec) 
Heartbeat CPU  0 instructions:   41000000 cycles:   27732569 heartbeat IPC: 1.47743 cumulative IPC: 1.47841 (Simulation time: 0 hr 1 min 12 sec) 
Heartbeat CPU  0 instructions:   42000002 cycles:   28409236 heartbeat IPC: 1.47783 cumulative IPC: 1.47839 (Simulation time: 0 hr 1 min 14 sec) 
Heartbeat CPU  0 instructions:   43000002 cycles:   29085839 heartbeat IPC: 1.47797 cumulative IPC: 1.47838 (Simulation time: 0 hr 1 min 16 sec) 
Heartbeat CPU  0 instructions:   44000000 cycles:   29752095 heartbeat IPC: 1.50092 cumulative IPC: 1.47889 (Simulation time: 0 hr 1 min 18 sec) 
Heartbeat CPU  0 instructions:   45000003 cycles:   30418354 heartbeat IPC: 1.50092 cumulative IPC: 1.47937 (Simulation time: 0 hr 1 min 19 sec) 
Heartbeat CPU  0 instructions:   46000001 cycles:   31084291 heartbeat IPC: 1.50164 cumulative IPC: 1.47985 (Simulation time: 0 hr 1 min 21 sec) 
Heartbeat CPU  0 instructions:   47000000 cycles:   31750286 heartbeat IPC: 1.50151 cumulative IPC: 1.48030 (Simulation time: 0 hr 1 min 23 sec) 
Heartbeat CPU  0 instructions:   48000000 cycles:   32416130 heartbeat IPC: 1.50185 cumulative IPC: 1.48074 (Simulation time: 0 hr 1 min 25 sec) 
Heartbeat CPU  0 instructions:   49000000 cycles:   33082175 heartbeat IPC: 1.50140 cumulative IPC: 1.48116 (Simulation time: 0 hr 1 min 27 sec) 
Heartbeat CPU  0 instructions:   50000003 cycles:   33748371 heartbeat IPC: 1.50106 cumulative IPC: 1.48155 (Simulation time: 0 hr 1 min 28 sec) 
Heartbeat CPU  0 instructions:   51000003 cycles:   34414476 heartbeat IPC: 1.50126 cumulative IPC: 1.48193 (Simulation time: 0 hr 1 min 30 sec) 
Heartbeat CPU  0 instructions:   52000000 cycles:   35080560 heartbeat IPC: 1.50131 cumulative IPC: 1.48230 (Simulation time: 0 hr 1 min 32 sec) 
Heartbeat CPU  0 instructions:   53000003 cycles:   35746643 heartbeat IPC: 1.50132 cumulative IPC: 1.48266 (Simulation time: 0 hr 1 min 34 sec) 
Heartbeat CPU  0 instructions:   54000000 cycles:   36412495 heartbeat IPC: 1.50183 cumulative IPC: 1.48301 (Simulation time: 0 hr 1 min 35 sec) 
Heartbeat CPU  0 instructions:   55000000 cycles:   37078455 heartbeat IPC: 1.50159 cumulative IPC: 1.48334 (Simulation time: 0 hr 1 min 37 sec) 
Heartbeat CPU  0 instructions:   56000000 cycles:   37740132 heartbeat IPC: 1.51131 cumulative IPC: 1.48383 (Simulation time: 0 hr 1 min 39 sec) 
Heartbeat CPU  0 instructions:   57000003 cycles:   38401206 heartbeat IPC: 1.51269 cumulative IPC: 1.48433 (Simulation time: 0 hr 1 min 41 sec) 
Heartbeat CPU  0 instructions:   58000000 cycles:   39062641 heartbeat IPC: 1.51186 cumulative IPC: 1.48479 (Simulation time: 0 hr 1 min 43 sec) 
Heartbeat CPU  0 instructions:   59000000 cycles:   39723705 heartbeat IPC: 1.51271 cumulative IPC: 1.48526 (Simulation time: 0 hr 1 min 44 sec) 
Heartbeat CPU  0 instructions:   60000000 cycles:   40384833 heartbeat IPC: 1.51257 cumulative IPC: 1.48571 (Simulation time: 0 hr 1 min 46 sec) 
Heartbeat CPU  0 instructions:   61000001 cycles:   41046719 heartbeat IPC: 1.51084 cumulative IPC: 1.48611 (Simulation time: 0 hr 1 min 48 sec) 
Heartbeat CPU  0 instructions:   62000000 cycles:   41708065 heartbeat IPC: 1.51207 cumulative IPC: 1.48652 (Simulation time: 0 hr 1 min 50 sec) 
Heartbeat CPU  0 instructions:   63000001 cycles:   42369158 heartbeat IPC: 1.51265 cumulative IPC: 1.48693 (Simulation time: 0 hr 1 min 51 sec) 
Heartbeat CPU  0 instructions:   64000000 cycles:   43030401 heartbeat IPC: 1.51230 cumulative IPC: 1.48732 (Simulation time: 0 hr 1 min 53 sec) 
Heartbeat CPU  0 instructions:   65000003 cycles:   43691615 heartbeat IPC: 1.51237 cumulative IPC: 1.48770 (Simulation time: 0 hr 1 min 55 sec) 
Heartbeat CPU  0 instructions:   66000000 cycles:   44352858 heartbeat IPC: 1.51230 cumulative IPC: 1.48807 (Simulation time: 0 hr 1 min 57 sec) 
Heartbeat CPU  0 instructions:   67000002 cycles:   45014553 heartbeat IPC: 1.51127 cumulative IPC: 1.48841 (Simulation time: 0 hr 1 min 58 sec) 
Heartbeat CPU  0 instructions:   68000000 cycles:   45684633 heartbeat IPC: 1.49236 cumulative IPC: 1.48847 (Simulation time: 0 hr 2 min 0 sec) 
Heartbeat CPU  0 instructions:   69000002 cycles:   46355267 heartbeat IPC: 1.49113 cumulative IPC: 1.48850 (Simulation time: 0 hr 2 min 2 sec) 
Heartbeat CPU  0 instructions:   70000001 cycles:   47026200 heartbeat IPC: 1.49046 cumulative IPC: 1.48853 (Simulation time: 0 hr 2 min 4 sec) 
Heartbeat CPU  0 instructions:   71000002 cycles:   47696885 heartbeat IPC: 1.49101 cumulative IPC: 1.48857 (Simulation time: 0 hr 2 min 5 sec) 
Heartbeat CPU  0 instructions:   72000000 cycles:   48367815 heartbeat IPC: 1.49047 cumulative IPC: 1.48859 (Simulation time: 0 hr 2 min 7 sec) 
Heartbeat CPU  0 instructions:   73000000 cycles:   49038528 heartbeat IPC: 1.49095 cumulative IPC: 1.48863 (Simulation time: 0 hr 2 min 9 sec) 
Heartbeat CPU  0 instructions:   74000000 cycles:   49709042 heartbeat IPC: 1.49139 cumulative IPC: 1.48866 (Simulation time: 0 hr 2 min 11 sec) 
Heartbeat CPU  0 instructions:   75000001 cycles:   50380024 heartbeat IPC: 1.49035 cumulative IPC: 1.48869 (Simulation time: 0 hr 2 min 12 sec) 
Heartbeat CPU  0 instructions:   76000000 cycles:   51050574 heartbeat IPC: 1.49131 cumulative IPC: 1.48872 (Simulation time: 0 hr 2 min 14 sec) 
Heartbeat CPU  0 instructions:   77000000 cycles:   51721540 heartbeat IPC: 1.49039 cumulative IPC: 1.48874 (Simulation time: 0 hr 2 min 16 sec) 
Heartbeat CPU  0 instructions:   78000003 cycles:   52392213 heartbeat IPC: 1.49104 cumulative IPC: 1.48877 (Simulation time: 0 hr 2 min 18 sec) 
Heartbeat CPU  0 instructions:   79000002 cycles:   53062784 heartbeat IPC: 1.49126 cumulative IPC: 1.48880 (Simulation time: 0 hr 2 min 20 sec) 
Heartbeat CPU  0 instructions:   80000000 cycles:   53735830 heartbeat IPC: 1.48578 cumulative IPC: 1.48876 (Simulation time: 0 hr 2 min 21 sec) 
Heartbeat CPU  0 instructions:   81000003 cycles:   54409997 heartbeat IPC: 1.48332 cumulative IPC: 1.48870 (Simulation time: 0 hr 2 min 23 sec) 
Heartbeat CPU  0 instructions:   82000001 cycles:   55083732 heartbeat IPC: 1.48426 cumulative IPC: 1.48864 (Simulation time: 0 hr 2 min 25 sec) 
Heartbeat CPU  0 instructions:   83000002 cycles:   55757321 heartbeat IPC: 1.48459 cumulative IPC: 1.48859 (Simulation time: 0 hr 2 min 27 sec) 
Heartbeat CPU  0 instructions:   84000000 cycles:   56430894 heartbeat IPC: 1.48462 cumulative IPC: 1.48855 (Simulation time: 0 hr 2 min 28 sec) 
Heartbeat CPU  0 instructions:   85000000 cycles:   57104690 heartbeat IPC: 1.48413 cumulative IPC: 1.48849 (Simulation time: 0 hr 2 min 30 sec) 
Heartbeat CPU  0 instructions:   86000001 cycles:   57778296 heartbeat IPC: 1.48455 cumulative IPC: 1.48845 (Simulation time: 0 hr 2 min 32 sec) 
Heartbeat CPU  0 instructions:   87000000 cycles:   58451948 heartbeat IPC: 1.48444 cumulative IPC: 1.48840 (Simulation time: 0 hr 2 min 34 sec) 
Heartbeat CPU  0 instructions:   88000000 cycles:   59125769 heartbeat IPC: 1.48407 cumulative IPC: 1.48835 (Simulation time: 0 hr 2 min 35 sec) 
Heartbeat CPU  0 instructions:   89000002 cycles:   59799504 heartbeat IPC: 1.48427 cumulative IPC: 1.48831 (Simulation time: 0 hr 2 min 37 sec) 
Heartbeat CPU  0 instructions:   90000000 cycles:   60472852 heartbeat IPC: 1.48511 cumulative IPC: 1.48827 (Simulation time: 0 hr 2 min 39 sec) 
Heartbeat CPU  0 instructions:   91000000 cycles:   61146394 heartbeat IPC: 1.48469 cumulative IPC: 1.48823 (Simulation time: 0 hr 2 min 41 sec) 
Heartbeat CPU  0 instructions:   92000000 cycles:   61822940 heartbeat IPC: 1.47810 cumulative IPC: 1.48812 (Simulation time: 0 hr 2 min 43 sec) 
Heartbeat CPU  0 instructions:   93000001 cycles:   62501987 heartbeat IPC: 1.47265 cumulative IPC: 1.48795 (Simulation time: 0 hr 2 min 44 sec) 
Heartbeat CPU  0 instructions:   94000001 cycles:   63180997 heartbeat IPC: 1.47273 cumulative IPC: 1.48779 (Simulation time: 0 hr 2 min 46 sec) 
Heartbeat CPU  0 instructions:   95000001 cycles:   63860102 heartbeat IPC: 1.47253 cumulative IPC: 1.48763 (Simulation time: 0 hr 2 min 48 sec) 
Heartbeat CPU  0 instructions:   96000000 cycles:   64539195 heartbeat IPC: 1.47255 cumulative IPC: 1.48747 (Simulation time: 0 hr 2 min 50 sec) 
Heartbeat CPU  0 instructions:   97000000 cycles:   65218270 heartbeat IPC: 1.47259 cumulative IPC: 1.48731 (Simulation time: 0 hr 2 min 51 sec) 
Heartbeat CPU  0 instructions:   98000000 cycles:   65897345 heartbeat IPC: 1.47259 cumulative IPC: 1.48716 (Simulation time: 0 hr 2 min 53 sec) 
Heartbeat CPU  0 instructions:   99000000 cycles:   66576437 heartbeat IPC: 1.47255 cumulative IPC: 1.48701 (Simulation time: 0 hr 2 min 55 sec) 
Heartbeat CPU  0 instructions:  100000000 cycles:   67255519 heartbeat IPC: 1.47258 cumulative IPC: 1.48687 (Simulation time: 0 hr 2 min 57 sec) 

Warmup complete CPU  0 instructions:  100000001 cycles:   67255520 (Simulation time: 0 hr 2 min 57 sec) 

Heartbeat CPU  0 instructions:  101000001 cycles:   68404204 heartbeat IPC: 0.87056 cumulative IPC: 0.87056 (Simulation time: 0 hr 2 min 58 sec) 
Heartbeat CPU  0 instructions:  102000002 cycles:   69545297 heartbeat IPC: 0.87635 cumulative IPC: 0.87345 (Simulation time: 0 hr 3 min 0 sec) 
Heartbeat CPU  0 instructions:  103000001 cycles:   70686398 heartbeat IPC: 0.87635 cumulative IPC: 0.87441 (Simulation time: 0 hr 3 min 2 sec) 
Heartbeat CPU  0 instructions:  104000000 cycles:   71826574 heartbeat IPC: 0.87706 cumulative IPC: 0.87507 (Simulation time: 0 hr 3 min 4 sec) 
Heartbeat CPU  0 instructions:  105000001 cycles:   72972563 heartbeat IPC: 0.87261 cumulative IPC: 0.87458 (Simulation time: 0 hr 3 min 6 sec) 
Heartbeat CPU  0 instructions:  106000001 cycles:   74118491 heartbeat IPC: 0.87266 cumulative IPC: 0.87426 (Simulation time: 0 hr 3 min 8 sec) 
Heartbeat CPU  0 instructions:  107000002 cycles:   75477721 heartbeat IPC: 0.73571 cumulative IPC: 0.85135 (Simulation time: 0 hr 3 min 10 sec) 
Heartbeat CPU  0 instructions:  108000000 cycles:   76637103 heartbeat IPC: 0.86253 cumulative IPC: 0.85273 (Simulation time: 0 hr 3 min 12 sec) 
Heartbeat CPU  0 instructions:  109000000 cycles:   77803397 heartbeat IPC: 0.85742 cumulative IPC: 0.85325 (Simulation time: 0 hr 3 min 14 sec) 
Heartbeat CPU  0 instructions:  110000002 cycles:   78970802 heartbeat IPC: 0.85660 cumulative IPC: 0.85359 (Simulation time: 0 hr 3 min 16 sec) 
Heartbeat CPU  0 instructions:  111000000 cycles:   80130738 heartbeat IPC: 0.86211 cumulative IPC: 0.85435 (Simulation time: 0 hr 3 min 18 sec) 
Heartbeat CPU  0 instructions:  112000000 cycles:   81284606 heartbeat IPC: 0.86665 cumulative IPC: 0.85537 (Simulation time: 0 hr 3 min 20 sec) 
Heartbeat CPU  0 instructions:  113000000 cycles:   82444623 heartbeat IPC: 0.86206 cumulative IPC: 0.85588 (Simulation time: 0 hr 3 min 22 sec) 
Heartbeat CPU  0 instructions:  114000002 cycles:   83607151 heartbeat IPC: 0.86020 cumulative IPC: 0.85618 (Simulation time: 0 hr 3 min 24 sec) 
Heartbeat CPU  0 instructions:  115000002 cycles:   84764105 heartbeat IPC: 0.86434 cumulative IPC: 0.85672 (Simulation time: 0 hr 3 min 26 sec) 
Heartbeat CPU  0 instructions:  116000000 cycles:   85919662 heartbeat IPC: 0.86538 cumulative IPC: 0.85726 (Simulation time: 0 hr 3 min 28 sec) 
Heartbeat CPU  0 instructions:  117000002 cycles:   87082974 heartbeat IPC: 0.85962 cumulative IPC: 0.85740 (Simulation time: 0 hr 3 min 30 sec) 
Heartbeat CPU  0 instructions:  118000000 cycles:   88240405 heartbeat IPC: 0.86398 cumulative IPC: 0.85776 (Simulation time: 0 hr 3 min 32 sec) 
Heartbeat CPU  0 instructions:  119000000 cycles:   89396482 heartbeat IPC: 0.86499 cumulative IPC: 0.85814 (Simulation time: 0 hr 3 min 34 sec) 
Heartbeat CPU  0 instructions:  120000000 cycles:   90547015 heartbeat IPC: 0.86916 cumulative IPC: 0.85868 (Simulation time: 0 hr 3 min 36 sec) 
Heartbeat CPU  0 instructions:  121000002 cycles:   91710031 heartbeat IPC: 0.85984 cumulative IPC: 0.85874 (Simulation time: 0 hr 3 min 38 sec) 
Heartbeat CPU  0 instructions:  122000002 cycles:   92864196 heartbeat IPC: 0.86643 cumulative IPC: 0.85908 (Simulation time: 0 hr 3 min 40 sec) 
Heartbeat CPU  0 instructions:  123000003 cycles:   93770832 heartbeat IPC: 1.10298 cumulative IPC: 0.86742 (Simulation time: 0 hr 3 min 42 sec) 
Heartbeat CPU  0 instructions:  124000000 cycles:   94819392 heartbeat IPC: 0.95369 cumulative IPC: 0.87070 (Simulation time: 0 hr 3 min 43 sec) 
Heartbeat CPU  0 instructions:  125000000 cycles:   96072459 heartbeat IPC: 0.79804 cumulative IPC: 0.86755 (Simulation time: 0 hr 3 min 45 sec) 
Heartbeat CPU  0 instructions:  126000001 cycles:   97337008 heartbeat IPC: 0.79080 cumulative IPC: 0.86432 (Simulation time: 0 hr 3 min 47 sec) 
Heartbeat CPU  0 instructions:  127000001 cycles:   98641916 heartbeat IPC: 0.76634 cumulative IPC: 0.86025 (Simulation time: 0 hr 3 min 48 sec) 
Heartbeat CPU  0 instructions:  128000000 cycles:   99942888 heartbeat IPC: 0.76866 cumulative IPC: 0.85660 (Simulation time: 0 hr 3 min 50 sec) 
Heartbeat CPU  0 instructions:  129000002 cycles:  101244451 heartbeat IPC: 0.76831 cumulative IPC: 0.85322 (Simulation time: 0 hr 3 min 52 sec) 
Heartbeat CPU  0 instructions:  130000002 cycles:  102543241 heartbeat IPC: 0.76995 cumulative IPC: 0.85015 (Simulation time: 0 hr 3 min 54 sec) 
Heartbeat CPU  0 instructions:  131000003 cycles:  103845582 heartbeat IPC: 0.76785 cumulative IPC: 0.84722 (Simulation time: 0 hr 3 min 55 sec) 
Heartbeat CPU  0 instructions:  132000000 cycles:  105141252 heartbeat IPC: 0.77180 cumulative IPC: 0.84465 (Simulation time: 0 hr 3 min 57 sec) 
Heartbeat CPU  0 instructions:  133000000 cycles:  106435816 heartbeat IPC: 0.77246 cumulative IPC: 0.84226 (Simulation time: 0 hr 3 min 59 sec) 
Heartbeat CPU  0 instructions:  134000001 cycles:  107732667 heartbeat IPC: 0.77110 cumulative IPC: 0.83998 (Simulation time: 0 hr 4 min 1 sec) 
Heartbeat CPU  0 instructions:  135000001 cycles:  109019200 heartbeat IPC: 0.77728 cumulative IPC: 0.83805 (Simulation time: 0 hr 4 min 2 sec) 
Heartbeat CPU  0 instructions:  136000000 cycles:  110325244 heartbeat IPC: 0.76567 cumulative IPC: 0.83585 (Simulation time: 0 hr 4 min 4 sec) 
Heartbeat CPU  0 instructions:  137000002 cycles:  111632024 heartbeat IPC: 0.76524 cumulative IPC: 0.83377 (Simulation time: 0 hr 4 min 6 sec) 
Heartbeat CPU  0 instructions:  138000003 cycles:  112922561 heartbeat IPC: 0.77487 cumulative IPC: 0.83211 (Simulation time: 0 hr 4 min 8 sec) 
Heartbeat CPU  0 instructions:  139000003 cycles:  114217261 heartbeat IPC: 0.77238 cumulative IPC: 0.83046 (Simulation time: 0 hr 4 min 9 sec) 
Heartbeat CPU  0 instructions:  140000000 cycles:  115514799 heartbeat IPC: 0.77069 cumulative IPC: 0.82886 (Simulation time: 0 hr 4 min 11 sec) 
Heartbeat CPU  0 instructions:  141000000 cycles:  116821026 heartbeat IPC: 0.76556 cumulative IPC: 0.82719 (Simulation time: 0 hr 4 min 13 sec) 
Heartbeat CPU  0 instructions:  142000001 cycles:  118111160 heartbeat IPC: 0.77511 cumulative IPC: 0.82587 (Simulation time: 0 hr 4 min 15 sec) 
Heartbeat CPU  0 instructions:  143000002 cycles:  119428075 heartbeat IPC: 0.75935 cumulative IPC: 0.82419 (Simulation time: 0 hr 4 min 16 sec) 
Heartbeat CPU  0 instructions:  144000000 cycles:  120737662 heartbeat IPC: 0.76360 cumulative IPC: 0.82270 (Simulation time: 0 hr 4 min 18 sec) 
Heartbeat CPU  0 instructions:  145000002 cycles:  122029673 heartbeat IPC: 0.77399 cumulative IPC: 0.82156 (Simulation time: 0 hr 4 min 20 sec) 
Heartbeat CPU  0 instructions:  146000000 cycles:  123327170 heartbeat IPC: 0.77071 cumulative IPC: 0.82038 (Simulation time: 0 hr 4 min 22 sec) 
Heartbeat CPU  0 instructions:  147000003 cycles:  124636781 heartbeat IPC: 0.76359 cumulative IPC: 0.81908 (Simulation time: 0 hr 4 min 23 sec) 
Heartbeat CPU  0 instructions:  148000000 cycles:  126036658 heartbeat IPC: 0.71435 cumulative IPC: 0.81659 (Simulation time: 0 hr 4 min 25 sec) 
Heartbeat CPU  0 instructions:  149000000 cycles:  127658714 heartbeat IPC: 0.61650 cumulative IPC: 0.81122 (Simulation time: 0 hr 4 min 27 sec) 
Heartbeat CPU  0 instructions:  150000002 cycles:  129270970 heartbeat IPC: 0.62025 cumulative IPC: 0.80625 (Simulation time: 0 hr 4 min 29 sec) 
Heartbeat CPU  0 instructions:  151000001 cycles:  130888799 heartbeat IPC: 0.61811 cumulative IPC: 0.80147 (Simulation time: 0 hr 4 min 31 sec) 
Heartbeat CPU  0 instructions:  152000000 cycles:  132436223 heartbeat IPC: 0.64623 cumulative IPC: 0.79778 (Simulation time: 0 hr 4 min 33 sec) 
Heartbeat CPU  0 instructions:  153000002 cycles:  134083149 heartbeat IPC: 0.60719 cumulative IPC: 0.79309 (Simulation time: 0 hr 4 min 35 sec) 
Heartbeat CPU  0 instructions:  154000003 cycles:  135656810 heartbeat IPC: 0.63546 cumulative IPC: 0.78946 (Simulation time: 0 hr 4 min 36 sec) 
Heartbeat CPU  0 instructions:  155000003 cycles:  137266961 heartbeat IPC: 0.62106 cumulative IPC: 0.78559 (Simulation time: 0 hr 4 min 38 sec) 
Heartbeat CPU  0 instructions:  156000000 cycles:  138858252 heartbeat IPC: 0.62842 cumulative IPC: 0.78209 (Simulation time: 0 hr 4 min 40 sec) 
Heartbeat CPU  0 instructions:  157000000 cycles:  140521633 heartbeat IPC: 0.60119 cumulative IPC: 0.77799 (Simulation time: 0 hr 4 min 42 sec) 
Heartbeat CPU  0 instructions:  158000001 cycles:  142082239 heartbeat IPC: 0.64078 cumulative IPC: 0.77512 (Simulation time: 0 hr 4 min 44 sec) 
Heartbeat CPU  0 instructions:  159000002 cycles:  143722833 heartbeat IPC: 0.60954 cumulative IPC: 0.77157 (Simulation time: 0 hr 4 min 46 sec) 
Heartbeat CPU  0 instructions:  160000000 cycles:  145307793 heartbeat IPC: 0.63093 cumulative IPC: 0.76872 (Simulation time: 0 hr 4 min 48 sec) 
Heartbeat CPU  0 instructions:  161000002 cycles:  146965244 heartbeat IPC: 0.60334 cumulative IPC: 0.76528 (Simulation time: 0 hr 4 min 49 sec) 
Heartbeat CPU  0 instructions:  162000003 cycles:  148532953 heartbeat IPC: 0.63787 cumulative IPC: 0.76282 (Simulation time: 0 hr 4 min 51 sec) 
Heartbeat CPU  0 instructions:  163000003 cycles:  150199981 heartbeat IPC: 0.59987 cumulative IPC: 0.75954 (Simulation time: 0 hr 4 min 53 sec) 
Heartbeat CPU  0 instructions:  164000000 cycles:  151786695 heartbeat IPC: 0.63023 cumulative IPC: 0.75712 (Simulation time: 0 hr 4 min 55 sec) 
Heartbeat CPU  0 instructions:  165000000 cycles:  153424009 heartbeat IPC: 0.61076 cumulative IPC: 0.75434 (Simulation time: 0 hr 4 min 57 sec) 
Heartbeat CPU  0 instructions:  166000001 cycles:  154992808 heartbeat IPC: 0.63743 cumulative IPC: 0.75225 (Simulation time: 0 hr 4 min 59 sec) 
Heartbeat CPU  0 instructions:  167000001 cycles:  156675794 heartbeat IPC: 0.59418 cumulative IPC: 0.74927 (Simulation time: 0 hr 5 min 1 sec) 
Heartbeat CPU  0 instructions:  168000000 cycles:  158230984 heartbeat IPC: 0.64301 cumulative IPC: 0.74745 (Simulation time: 0 hr 5 min 2 sec) 
Heartbeat CPU  0 instructions:  169000002 cycles:  159861483 heartbeat IPC: 0.61331 cumulative IPC: 0.74509 (Simulation time: 0 hr 5 min 4 sec) 
Heartbeat CPU  0 instructions:  170000000 cycles:  161444049 heartbeat IPC: 0.63188 cumulative IPC: 0.74319 (Simulation time: 0 hr 5 min 6 sec) 
Heartbeat CPU  0 instructions:  171000000 cycles:  163032041 heartbeat IPC: 0.62973 cumulative IPC: 0.74131 (Simulation time: 0 hr 5 min 8 sec) 
Heartbeat CPU  0 instructions:  172000000 cycles:  164624961 heartbeat IPC: 0.62778 cumulative IPC: 0.73945 (Simulation time: 0 hr 5 min 10 sec) 
Heartbeat CPU  0 instructions:  173000002 cycles:  166220271 heartbeat IPC: 0.62684 cumulative IPC: 0.73764 (Simulation time: 0 hr 5 min 12 sec) 
Heartbeat CPU  0 instructions:  174000001 cycles:  167851568 heartbeat IPC: 0.61301 cumulative IPC: 0.73562 (Simulation time: 0 hr 5 min 14 sec) 
Heartbeat CPU  0 instructions:  175000002 cycles:  169402363 heartbeat IPC: 0.64483 cumulative IPC: 0.73424 (Simulation time: 0 hr 5 min 15 sec) 
Heartbeat CPU  0 instructions:  176000000 cycles:  171050519 heartbeat IPC: 0.60674 cumulative IPC: 0.73221 (Simulation time: 0 hr 5 min 17 sec) 
Heartbeat CPU  0 instructions:  177000003 cycles:  172606732 heartbeat IPC: 0.64259 cumulative IPC: 0.73089 (Simulation time: 0 hr 5 min 19 sec) 
Heartbeat CPU  0 instructions:  178000003 cycles:  174242108 heartbeat IPC: 0.61148 cumulative IPC: 0.72906 (Simulation time: 0 hr 5 min 21 sec) 
Heartbeat CPU  0 instructions:  179000001 cycles:  175797833 heartbeat IPC: 0.64279 cumulative IPC: 0.72783 (Simulation time: 0 hr 5 min 23 sec) 
Heartbeat CPU  0 instructions:  180000000 cycles:  177473158 heartbeat IPC: 0.59690 cumulative IPC: 0.72584 (Simulation time: 0 hr 5 min 25 sec) 
Heartbeat CPU  0 instructions:  181000001 cycles:  179086123 heartbeat IPC: 0.61998 cumulative IPC: 0.72431 (Simulation time: 0 hr 5 min 27 sec) 
Heartbeat CPU  0 instructions:  182000002 cycles:  180720324 heartbeat IPC: 0.61192 cumulative IPC: 0.72269 (Simulation time: 0 hr 5 min 29 sec) 
Heartbeat CPU  0 instructions:  183000002 cycles:  182247012 heartbeat IPC: 0.65501 cumulative IPC: 0.72179 (Simulation time: 0 hr 5 min 30 sec) 
Heartbeat CPU  0 instructions:  184000000 cycles:  183931057 heartbeat IPC: 0.59381 cumulative IPC: 0.71995 (Simulation time: 0 hr 5 min 32 sec) 
Heartbeat CPU  0 instructions:  185000003 cycles:  185502987 heartbeat IPC: 0.63616 cumulative IPC: 0.71883 (Simulation time: 0 hr 5 min 34 sec) 
Heartbeat CPU  0 instructions:  186000003 cycles:  187153233 heartbeat IPC: 0.60597 cumulative IPC: 0.71728 (Simulation time: 0 hr 5 min 36 sec) 
Heartbeat CPU  0 instructions:  187000000 cycles:  188765920 heartbeat IPC: 0.62008 cumulative IPC: 0.71599 (Simulation time: 0 hr 5 min 38 sec) 
Heartbeat CPU  0 instructions:  188000000 cycles:  190425268 heartbeat IPC: 0.60265 cumulative IPC: 0.71446 (Simulation time: 0 hr 5 min 40 sec) 
Heartbeat CPU  0 instructions:  189000001 cycles:  191982002 heartbeat IPC: 0.64237 cumulative IPC: 0.71356 (Simulation time: 0 hr 5 min 42 sec) 
Heartbeat CPU  0 instructions:  190000001 cycles:  193636376 heartbeat IPC: 0.60446 cumulative IPC: 0.71213 (Simulation time: 0 hr 5 min 43 sec) 
Heartbeat CPU  0 instructions:  191000002 cycles:  195231633 heartbeat IPC: 0.62686 cumulative IPC: 0.71107 (Simulation time: 0 hr 5 min 45 sec) 
Heartbeat CPU  0 instructions:  192000000 cycles:  196845739 heartbeat IPC: 0.61954 cumulative IPC: 0.70993 (Simulation time: 0 hr 5 min 47 sec) 
Heartbeat CPU  0 instructions:  193000003 cycles:  198426127 heartbeat IPC: 0.63276 cumulative IPC: 0.70900 (Simulation time: 0 hr 5 min 49 sec) 
Heartbeat CPU  0 instructions:  194000003 cycles:  200097795 heartbeat IPC: 0.59820 cumulative IPC: 0.70761 (Simulation time: 0 hr 5 min 51 sec) 
Heartbeat CPU  0 instructions:  195000001 cycles:  201651660 heartbeat IPC: 0.64356 cumulative IPC: 0.70687 (Simulation time: 0 hr 5 min 53 sec) 
Heartbeat CPU  0 instructions:  196000000 cycles:  203269587 heartbeat IPC: 0.61807 cumulative IPC: 0.70581 (Simulation time: 0 hr 5 min 55 sec) 
Heartbeat CPU  0 instructions:  197000001 cycles:  204877236 heartbeat IPC: 0.62203 cumulative IPC: 0.70483 (Simulation time: 0 hr 5 min 57 sec) 
Heartbeat CPU  0 instructions:  198000001 cycles:  206500073 heartbeat IPC: 0.61620 cumulative IPC: 0.70380 (Simulation time: 0 hr 5 min 58 sec) 
Heartbeat CPU  0 instructions:  199000002 cycles:  208070048 heartbeat IPC: 0.63695 cumulative IPC: 0.70305 (Simulation time: 0 hr 6 min 0 sec) 
Heartbeat CPU  0 instructions:  200000000 cycles:  209692328 heartbeat IPC: 0.61642 cumulative IPC: 0.70207 (Simulation time: 0 hr 6 min 2 sec) 
Finished CPU 0 instructions: 100000001 cycles: 142436816 cumulative IPC: 0.70207 (Simulation time: 0 hr 6 min 2 sec) 

ChampSim completed all CPUs

[ROI Statistics]
Core_0_instructions 100000001
Core_0_cycles 142436816
Core_0_IPC 0.70207

Core_0_branch_prediction_accuracy 99.52414
Core_0_branch_MPKI 0.08716
Core_0_average_ROB_occupancy_at_mispredict 253.78235

Core_0_L1D_total_access 51208911
Core_0_L1D_total_hit 48184741
Core_0_L1D_total_miss 3024170
Core_0_L1D_loads 26805969
Core_0_L1D_load_hit 25520333
Core_0_L1D_load_miss 1285636
Core_0_L1D_RFOs 6122320
Core_0_L1D_RFO_hit 6122299
Core_0_L1D_RFO_miss 21
Core_0_L1D_prefetches 18280622
Core_0_L1D_prefetch_hit 16542109
Core_0_L1D_prefetch_miss 1738513
Core_0_L1D_writebacks 0
Core_0_L1D_writeback_hit 0
Core_0_L1D_writeback_miss 0
Core_0_L1D_prefetch_requested 80448718
Core_0_L1D_prefetch_issued 69956801
Core_0_L1D_prefetch_useful 1111641
Core_0_L1D_prefetch_useless 3514631
Core_0_L1D_prefetch_late 608940
Core_0_L1D_average_miss_latency 29840879.05074

Core_0_L1I_total_access 21155812
Core_0_L1I_total_hit 21155735
Core_0_L1I_total_miss 77
Core_0_L1I_loads 21155812
Core_0_L1I_load_hit 21155735
Core_0_L1I_load_miss 77
Core_0_L1I_RFOs 0
Core_0_L1I_RFO_hit 0
Core_0_L1I_RFO_miss 0
Core_0_L1I_prefetches 0
Core_0_L1I_prefetch_hit 0
Core_0_L1I_prefetch_miss 0
Core_0_L1I_writebacks 0
Core_0_L1I_writeback_hit 0
Core_0_L1I_writeback_miss 0
Core_0_L1I_prefetch_requested 0
Core_0_L1I_prefetch_issued 0
Core_0_L1I_prefetch_useful 0
Core_0_L1I_prefetch_useless 0
Core_0_L1I_prefetch_late 0
Core_0_L1I_average_miss_latency 215.32468

Core_0_L2C_total_access 3703526
Core_0_L2C_total_hit 1663045
Core_0_L2C_total_miss 2040481
Core_0_L2C_loads 676772
Core_0_L2C_load_hit 524951
Core_0_L2C_load_miss 151821
Core_0_L2C_RFOs 21
Core_0_L2C_RFO_hit 0
Core_0_L2C_RFO_miss 21
Core_0_L2C_prefetches 2347450
Core_0_L2C_prefetch_hit 458932
Core_0_L2C_prefetch_miss 1888518
Core_0_L2C_writebacks 679283
Core_0_L2C_writeback_hit 679162
Core_0_L2C_writeback_miss 121
Core_0_L2C_prefetch_requested 0
Core_0_L2C_prefetch_issued 0
Core_0_L2C_prefetch_useful 304842
Core_0_L2C_prefetch_useless 2304499
Core_0_L2C_prefetch_late 0
Core_0_L2C_average_miss_latency 371.17130

Core_0_LLC_total_access 2715629
Core_0_LLC_total_hit 761107
Core_0_LLC_total_miss 1954522
Core_0_LLC_loads 151821
Core_0_LLC_load_hit 48351
Core_0_LLC_load_miss 103470
Core_0_LLC_RFOs 21
Core_0_LLC_RFO_hit 0
Core_0_LLC_RFO_miss 21
Core_0_LLC_prefetches 1888518
Core_0_LLC_prefetch_hit 48319
Core_0_LLC_prefetch_miss 1840199
Core_0_LLC_writebacks 675269
Core_0_LLC_writeback_hit 664437
Core_0_LLC_writeback_miss 10832
Core_0_LLC_prefetch_requested 0
Core_0_LLC_prefetch_issued 0
Core_0_LLC_prefetch_useful 59262
Core_0_LLC_prefetch_useless 2295950
Core_0_LLC_prefetch_late 0
Core_0_LLC_average_miss_latency 355.48261

Core_0_major_page_fault 0
Core_0_minor_page_fault 80857

CPU 0 L1D next line prefetcher final stats
Channel_0_RQ_row_buffer_hit 438302
Channel_0_RQ_row_buffer_miss 1505388
Channel_0_WQ_row_buffer_hit 130837
Channel_0_WQ_row_buffer_miss 533849
Channel_0_WQ_full 0
Channel_0_dbus_congested 1073705

avg_congested_cycle 10
