*************************************************
   ChampSim Multicore Out-of-Order Simulator
   Last compiled: Dec 25 2023 17:26:28
*************************************************

trace_0 ./test_trace/459.GemsFDTD-1320B.champsimtrace.xz
CPU 0 L2C next line prefetcher
Initialize SRRIP state
warmup_instructions 100000000
simulation_instructions 100000000
champsim_seed 264

num_cpus 1
cpu_freq 4000
dram_io_freq 2400
page_size 4096
block_size 64
max_read_per_cycle 8
max_fill_per_cycle 1
dram_channels 1
dram_ranks 1
dram_banks 8
dram_rows 65536
dram_columns 128
dram_row_size 8
dram_size 4096
dram_pages 1048576

fetch_width 6
decode_width 6
exec_width 4
lq_width 2
sq_width 2
retire_width 4
scheduler_size 128
branch_mispredict_penalty 20
rob_size 256
lq_size 72
sq_size 56
num_instr_destinations_sparc 4
num_instr_destinations 2
num_instr_sources 4

itlb_set 16
itlb_way 8
itlb_rq_size 16
itlb_wq_size 16
itlb_pq_size 0
itlb_mshr_size 8
itlb_latency 1

dtlb_set 16
dtlb_way 4
dtlb_rq_size 16
dtlb_wq_size 16
dtlb_pq_size 0
dtlb_mshr_size 8
dtlb_latency 1

stlb_set 128
stlb_way 12
stlb_rq_size 32
stlb_wq_size 32
stlb_pq_size 0
stlb_mshr_size 16
stlb_latency 8

l1i_size 32
l1i_set 64
l1i_way 8
l1i_rq_size 64
l1i_wq_size 64
l1i_pq_size 8
l1i_mshr_size 8
l1i_latency 1

l1d_size 32
l1d_set 64
l1d_way 8
l1d_rq_size 64
l1d_wq_size 64
l1d_pq_size 8
l1d_mshr_size 16
l1d_latency 4

l2c_size 512
l2c_set 1024
l2c_way 8
l2c_rq_size 32
l2c_wq_size 32
l2c_pq_size 16
l2c_mshr_size 32
l2c_latency 10

llc_size 2048
llc_set 2048
llc_way 16
llc_rq_size 32
llc_wq_size 32
llc_pq_size 32
llc_mshr_size 64
llc_latency 20

dram_channel_width 8
dram_wq_size 64
dram_rq_size 64
tRP 15
tRCD 15
tCAS 12.5
dram_dbus_turn_around_time 30
dram_write_high_wm 56
dram_write_low_wm 48
min_dram_writes_per_switch 16
dram_mtps 2400
dram_dbus_return_time 13


Heartbeat CPU  0 instructions:    1000000 cycles:     673385 heartbeat IPC: 1.48503 cumulative IPC: 1.48503 (Simulation time: 0 hr 0 min 2 sec) 
Heartbeat CPU  0 instructions:    2000003 cycles:    1346080 heartbeat IPC: 1.48656 cumulative IPC: 1.48580 (Simulation time: 0 hr 0 min 3 sec) 
Heartbeat CPU  0 instructions:    3000002 cycles:    2018691 heartbeat IPC: 1.48674 cumulative IPC: 1.48611 (Simulation time: 0 hr 0 min 5 sec) 
Heartbeat CPU  0 instructions:    4000000 cycles:    2691445 heartbeat IPC: 1.48642 cumulative IPC: 1.48619 (Simulation time: 0 hr 0 min 7 sec) 
Heartbeat CPU  0 instructions:    5000001 cycles:    3364237 heartbeat IPC: 1.48634 cumulative IPC: 1.48622 (Simulation time: 0 hr 0 min 9 sec) 
Heartbeat CPU  0 instructions:    6000001 cycles:    4036555 heartbeat IPC: 1.48739 cumulative IPC: 1.48642 (Simulation time: 0 hr 0 min 11 sec) 
Heartbeat CPU  0 instructions:    7000001 cycles:    4708942 heartbeat IPC: 1.48724 cumulative IPC: 1.48653 (Simulation time: 0 hr 0 min 13 sec) 
Heartbeat CPU  0 instructions:    8000000 cycles:    5381446 heartbeat IPC: 1.48698 cumulative IPC: 1.48659 (Simulation time: 0 hr 0 min 14 sec) 
Heartbeat CPU  0 instructions:    9000003 cycles:    6054014 heartbeat IPC: 1.48684 cumulative IPC: 1.48662 (Simulation time: 0 hr 0 min 16 sec) 
Heartbeat CPU  0 instructions:   10000003 cycles:    6726652 heartbeat IPC: 1.48668 cumulative IPC: 1.48662 (Simulation time: 0 hr 0 min 18 sec) 
Heartbeat CPU  0 instructions:   11000003 cycles:    7399208 heartbeat IPC: 1.48687 cumulative IPC: 1.48665 (Simulation time: 0 hr 0 min 20 sec) 
Heartbeat CPU  0 instructions:   12000000 cycles:    8071626 heartbeat IPC: 1.48717 cumulative IPC: 1.48669 (Simulation time: 0 hr 0 min 21 sec) 
Heartbeat CPU  0 instructions:   13000000 cycles:    8749266 heartbeat IPC: 1.47571 cumulative IPC: 1.48584 (Simulation time: 0 hr 0 min 23 sec) 
Heartbeat CPU  0 instructions:   14000002 cycles:    9428219 heartbeat IPC: 1.47286 cumulative IPC: 1.48490 (Simulation time: 0 hr 0 min 25 sec) 
Heartbeat CPU  0 instructions:   15000000 cycles:   10107248 heartbeat IPC: 1.47269 cumulative IPC: 1.48408 (Simulation time: 0 hr 0 min 27 sec) 
Heartbeat CPU  0 instructions:   16000000 cycles:   10786303 heartbeat IPC: 1.47263 cumulative IPC: 1.48336 (Simulation time: 0 hr 0 min 29 sec) 
Heartbeat CPU  0 instructions:   17000002 cycles:   11465389 heartbeat IPC: 1.47257 cumulative IPC: 1.48272 (Simulation time: 0 hr 0 min 30 sec) 
Heartbeat CPU  0 instructions:   18000003 cycles:   12144394 heartbeat IPC: 1.47274 cumulative IPC: 1.48217 (Simulation time: 0 hr 0 min 32 sec) 
Heartbeat CPU  0 instructions:   19000003 cycles:   12823295 heartbeat IPC: 1.47297 cumulative IPC: 1.48168 (Simulation time: 0 hr 0 min 34 sec) 
Heartbeat CPU  0 instructions:   20000000 cycles:   13502352 heartbeat IPC: 1.47263 cumulative IPC: 1.48122 (Simulation time: 0 hr 0 min 36 sec) 
Heartbeat CPU  0 instructions:   21000002 cycles:   14181469 heartbeat IPC: 1.47250 cumulative IPC: 1.48081 (Simulation time: 0 hr 0 min 37 sec) 
Heartbeat CPU  0 instructions:   22000000 cycles:   14860489 heartbeat IPC: 1.47271 cumulative IPC: 1.48044 (Simulation time: 0 hr 0 min 39 sec) 
Heartbeat CPU  0 instructions:   23000000 cycles:   15539503 heartbeat IPC: 1.47272 cumulative IPC: 1.48010 (Simulation time: 0 hr 0 min 41 sec) 
Heartbeat CPU  0 instructions:   24000000 cycles:   16218526 heartbeat IPC: 1.47270 cumulative IPC: 1.47979 (Simulation time: 0 hr 0 min 43 sec) 
Heartbeat CPU  0 instructions:   25000001 cycles:   16897670 heartbeat IPC: 1.47244 cumulative IPC: 1.47949 (Simulation time: 0 hr 0 min 44 sec) 
Heartbeat CPU  0 instructions:   26000001 cycles:   17576719 heartbeat IPC: 1.47265 cumulative IPC: 1.47923 (Simulation time: 0 hr 0 min 46 sec) 
Heartbeat CPU  0 instructions:   27000001 cycles:   18255688 heartbeat IPC: 1.47282 cumulative IPC: 1.47899 (Simulation time: 0 hr 0 min 48 sec) 
Heartbeat CPU  0 instructions:   28000000 cycles:   18933997 heartbeat IPC: 1.47425 cumulative IPC: 1.47882 (Simulation time: 0 hr 0 min 50 sec) 
Heartbeat CPU  0 instructions:   29000002 cycles:   19610682 heartbeat IPC: 1.47780 cumulative IPC: 1.47879 (Simulation time: 0 hr 0 min 51 sec) 
Heartbeat CPU  0 instructions:   30000000 cycles:   20287327 heartbeat IPC: 1.47788 cumulative IPC: 1.47876 (Simulation time: 0 hr 0 min 53 sec) 
Heartbeat CPU  0 instructions:   31000000 cycles:   20963987 heartbeat IPC: 1.47785 cumulative IPC: 1.47873 (Simulation time: 0 hr 0 min 55 sec) 
Heartbeat CPU  0 instructions:   32000000 cycles:   21640621 heartbeat IPC: 1.47790 cumulative IPC: 1.47870 (Simulation time: 0 hr 0 min 57 sec) 
Heartbeat CPU  0 instructions:   33000002 cycles:   22317450 heartbeat IPC: 1.47748 cumulative IPC: 1.47866 (Simulation time: 0 hr 0 min 59 sec) 
Heartbeat CPU  0 instructions:   34000000 cycles:   22994091 heartbeat IPC: 1.47789 cumulative IPC: 1.47864 (Simulation time: 0 hr 1 min 0 sec) 
Heartbeat CPU  0 instructions:   35000002 cycles:   23670766 heartbeat IPC: 1.47782 cumulative IPC: 1.47862 (Simulation time: 0 hr 1 min 2 sec) 
Heartbeat CPU  0 instructions:   36000000 cycles:   24347321 heartbeat IPC: 1.47807 cumulative IPC: 1.47860 (Simulation time: 0 hr 1 min 4 sec) 
Heartbeat CPU  0 instructions:   37000000 cycles:   25024160 heartbeat IPC: 1.47746 cumulative IPC: 1.47857 (Simulation time: 0 hr 1 min 6 sec) 
Heartbeat CPU  0 instructions:   38000000 cycles:   25700840 heartbeat IPC: 1.47780 cumulative IPC: 1.47855 (Simulation time: 0 hr 1 min 8 sec) 
Heartbeat CPU  0 instructions:   39000002 cycles:   26377578 heartbeat IPC: 1.47768 cumulative IPC: 1.47853 (Simulation time: 0 hr 1 min 9 sec) 
Heartbeat CPU  0 instructions:   40000000 cycles:   27054369 heartbeat IPC: 1.47756 cumulative IPC: 1.47850 (Simulation time: 0 hr 1 min 11 sec) 
Heartbeat CPU  0 instructions:   41000000 cycles:   27731225 heartbeat IPC: 1.47742 cumulative IPC: 1.47848 (Simulation time: 0 hr 1 min 13 sec) 
Heartbeat CPU  0 instructions:   42000002 cycles:   28407920 heartbeat IPC: 1.47777 cumulative IPC: 1.47846 (Simulation time: 0 hr 1 min 15 sec) 
Heartbeat CPU  0 instructions:   43000002 cycles:   29084568 heartbeat IPC: 1.47787 cumulative IPC: 1.47845 (Simulation time: 0 hr 1 min 16 sec) 
Heartbeat CPU  0 instructions:   44000000 cycles:   29750791 heartbeat IPC: 1.50100 cumulative IPC: 1.47895 (Simulation time: 0 hr 1 min 18 sec) 
Heartbeat CPU  0 instructions:   45000003 cycles:   30416953 heartbeat IPC: 1.50114 cumulative IPC: 1.47944 (Simulation time: 0 hr 1 min 20 sec) 
Heartbeat CPU  0 instructions:   46000001 cycles:   31082872 heartbeat IPC: 1.50168 cumulative IPC: 1.47991 (Simulation time: 0 hr 1 min 22 sec) 
Heartbeat CPU  0 instructions:   47000000 cycles:   31748896 heartbeat IPC: 1.50145 cumulative IPC: 1.48037 (Simulation time: 0 hr 1 min 24 sec) 
Heartbeat CPU  0 instructions:   48000000 cycles:   32414780 heartbeat IPC: 1.50176 cumulative IPC: 1.48081 (Simulation time: 0 hr 1 min 25 sec) 
Heartbeat CPU  0 instructions:   49000000 cycles:   33080698 heartbeat IPC: 1.50169 cumulative IPC: 1.48123 (Simulation time: 0 hr 1 min 27 sec) 
Heartbeat CPU  0 instructions:   50000003 cycles:   33746976 heartbeat IPC: 1.50088 cumulative IPC: 1.48161 (Simulation time: 0 hr 1 min 29 sec) 
Heartbeat CPU  0 instructions:   51000003 cycles:   34412902 heartbeat IPC: 1.50167 cumulative IPC: 1.48200 (Simulation time: 0 hr 1 min 31 sec) 
Heartbeat CPU  0 instructions:   52000000 cycles:   35079070 heartbeat IPC: 1.50112 cumulative IPC: 1.48237 (Simulation time: 0 hr 1 min 33 sec) 
Heartbeat CPU  0 instructions:   53000003 cycles:   35745104 heartbeat IPC: 1.50143 cumulative IPC: 1.48272 (Simulation time: 0 hr 1 min 35 sec) 
Heartbeat CPU  0 instructions:   54000000 cycles:   36410935 heartbeat IPC: 1.50188 cumulative IPC: 1.48307 (Simulation time: 0 hr 1 min 36 sec) 
Heartbeat CPU  0 instructions:   55000000 cycles:   37076960 heartbeat IPC: 1.50145 cumulative IPC: 1.48340 (Simulation time: 0 hr 1 min 38 sec) 
Heartbeat CPU  0 instructions:   56000000 cycles:   37738612 heartbeat IPC: 1.51137 cumulative IPC: 1.48389 (Simulation time: 0 hr 1 min 40 sec) 
Heartbeat CPU  0 instructions:   57000003 cycles:   38399706 heartbeat IPC: 1.51265 cumulative IPC: 1.48439 (Simulation time: 0 hr 1 min 42 sec) 
Heartbeat CPU  0 instructions:   58000000 cycles:   39060945 heartbeat IPC: 1.51231 cumulative IPC: 1.48486 (Simulation time: 0 hr 1 min 43 sec) 
Heartbeat CPU  0 instructions:   59000000 cycles:   39722028 heartbeat IPC: 1.51267 cumulative IPC: 1.48532 (Simulation time: 0 hr 1 min 45 sec) 
Heartbeat CPU  0 instructions:   60000000 cycles:   40383115 heartbeat IPC: 1.51266 cumulative IPC: 1.48577 (Simulation time: 0 hr 1 min 47 sec) 
Heartbeat CPU  0 instructions:   61000001 cycles:   41044698 heartbeat IPC: 1.51153 cumulative IPC: 1.48618 (Simulation time: 0 hr 1 min 49 sec) 
Heartbeat CPU  0 instructions:   62000000 cycles:   41706077 heartbeat IPC: 1.51199 cumulative IPC: 1.48659 (Simulation time: 0 hr 1 min 51 sec) 
Heartbeat CPU  0 instructions:   63000001 cycles:   42367171 heartbeat IPC: 1.51265 cumulative IPC: 1.48700 (Simulation time: 0 hr 1 min 52 sec) 
Heartbeat CPU  0 instructions:   64000000 cycles:   43028385 heartbeat IPC: 1.51237 cumulative IPC: 1.48739 (Simulation time: 0 hr 1 min 54 sec) 
Heartbeat CPU  0 instructions:   65000003 cycles:   43689657 heartbeat IPC: 1.51224 cumulative IPC: 1.48777 (Simulation time: 0 hr 1 min 56 sec) 
Heartbeat CPU  0 instructions:   66000000 cycles:   44350688 heartbeat IPC: 1.51278 cumulative IPC: 1.48814 (Simulation time: 0 hr 1 min 58 sec) 
Heartbeat CPU  0 instructions:   67000000 cycles:   45012043 heartbeat IPC: 1.51205 cumulative IPC: 1.48849 (Simulation time: 0 hr 2 min 0 sec) 
Heartbeat CPU  0 instructions:   68000000 cycles:   45682026 heartbeat IPC: 1.49258 cumulative IPC: 1.48855 (Simulation time: 0 hr 2 min 1 sec) 
Heartbeat CPU  0 instructions:   69000002 cycles:   46352642 heartbeat IPC: 1.49117 cumulative IPC: 1.48859 (Simulation time: 0 hr 2 min 3 sec) 
Heartbeat CPU  0 instructions:   70000001 cycles:   47023652 heartbeat IPC: 1.49029 cumulative IPC: 1.48861 (Simulation time: 0 hr 2 min 5 sec) 
Heartbeat CPU  0 instructions:   71000002 cycles:   47694261 heartbeat IPC: 1.49118 cumulative IPC: 1.48865 (Simulation time: 0 hr 2 min 7 sec) 
Heartbeat CPU  0 instructions:   72000000 cycles:   48365060 heartbeat IPC: 1.49076 cumulative IPC: 1.48868 (Simulation time: 0 hr 2 min 9 sec) 
Heartbeat CPU  0 instructions:   73000002 cycles:   49035754 heartbeat IPC: 1.49100 cumulative IPC: 1.48871 (Simulation time: 0 hr 2 min 10 sec) 
Heartbeat CPU  0 instructions:   74000000 cycles:   49706211 heartbeat IPC: 1.49152 cumulative IPC: 1.48875 (Simulation time: 0 hr 2 min 12 sec) 
Heartbeat CPU  0 instructions:   75000001 cycles:   50377199 heartbeat IPC: 1.49034 cumulative IPC: 1.48877 (Simulation time: 0 hr 2 min 14 sec) 
Heartbeat CPU  0 instructions:   76000000 cycles:   51047631 heartbeat IPC: 1.49157 cumulative IPC: 1.48881 (Simulation time: 0 hr 2 min 16 sec) 
Heartbeat CPU  0 instructions:   77000000 cycles:   51718541 heartbeat IPC: 1.49051 cumulative IPC: 1.48883 (Simulation time: 0 hr 2 min 17 sec) 
Heartbeat CPU  0 instructions:   78000003 cycles:   52389301 heartbeat IPC: 1.49085 cumulative IPC: 1.48885 (Simulation time: 0 hr 2 min 19 sec) 
Heartbeat CPU  0 instructions:   79000002 cycles:   53060016 heartbeat IPC: 1.49094 cumulative IPC: 1.48888 (Simulation time: 0 hr 2 min 21 sec) 
Heartbeat CPU  0 instructions:   80000000 cycles:   53732944 heartbeat IPC: 1.48604 cumulative IPC: 1.48884 (Simulation time: 0 hr 2 min 23 sec) 
Heartbeat CPU  0 instructions:   81000003 cycles:   54406751 heartbeat IPC: 1.48411 cumulative IPC: 1.48879 (Simulation time: 0 hr 2 min 25 sec) 
Heartbeat CPU  0 instructions:   82000001 cycles:   55080209 heartbeat IPC: 1.48487 cumulative IPC: 1.48874 (Simulation time: 0 hr 2 min 26 sec) 
Heartbeat CPU  0 instructions:   83000002 cycles:   55753789 heartbeat IPC: 1.48461 cumulative IPC: 1.48869 (Simulation time: 0 hr 2 min 28 sec) 
Heartbeat CPU  0 instructions:   84000000 cycles:   56427118 heartbeat IPC: 1.48516 cumulative IPC: 1.48865 (Simulation time: 0 hr 2 min 30 sec) 
Heartbeat CPU  0 instructions:   85000000 cycles:   57100674 heartbeat IPC: 1.48466 cumulative IPC: 1.48860 (Simulation time: 0 hr 2 min 32 sec) 
Heartbeat CPU  0 instructions:   86000001 cycles:   57774228 heartbeat IPC: 1.48466 cumulative IPC: 1.48855 (Simulation time: 0 hr 2 min 34 sec) 
Heartbeat CPU  0 instructions:   87000000 cycles:   58447812 heartbeat IPC: 1.48459 cumulative IPC: 1.48851 (Simulation time: 0 hr 2 min 35 sec) 
Heartbeat CPU  0 instructions:   88000000 cycles:   59121460 heartbeat IPC: 1.48445 cumulative IPC: 1.48846 (Simulation time: 0 hr 2 min 37 sec) 
Heartbeat CPU  0 instructions:   89000002 cycles:   59795189 heartbeat IPC: 1.48428 cumulative IPC: 1.48841 (Simulation time: 0 hr 2 min 39 sec) 
Heartbeat CPU  0 instructions:   90000001 cycles:   60468567 heartbeat IPC: 1.48505 cumulative IPC: 1.48838 (Simulation time: 0 hr 2 min 41 sec) 
Heartbeat CPU  0 instructions:   91000000 cycles:   61141974 heartbeat IPC: 1.48498 cumulative IPC: 1.48834 (Simulation time: 0 hr 2 min 43 sec) 
Heartbeat CPU  0 instructions:   92000000 cycles:   61818509 heartbeat IPC: 1.47812 cumulative IPC: 1.48823 (Simulation time: 0 hr 2 min 44 sec) 
Heartbeat CPU  0 instructions:   93000001 cycles:   62497535 heartbeat IPC: 1.47270 cumulative IPC: 1.48806 (Simulation time: 0 hr 2 min 46 sec) 
Heartbeat CPU  0 instructions:   94000001 cycles:   63176461 heartbeat IPC: 1.47291 cumulative IPC: 1.48790 (Simulation time: 0 hr 2 min 48 sec) 
Heartbeat CPU  0 instructions:   95000001 cycles:   63855469 heartbeat IPC: 1.47274 cumulative IPC: 1.48773 (Simulation time: 0 hr 2 min 50 sec) 
Heartbeat CPU  0 instructions:   96000000 cycles:   64534465 heartbeat IPC: 1.47276 cumulative IPC: 1.48758 (Simulation time: 0 hr 2 min 51 sec) 
Heartbeat CPU  0 instructions:   97000000 cycles:   65213516 heartbeat IPC: 1.47264 cumulative IPC: 1.48742 (Simulation time: 0 hr 2 min 53 sec) 
Heartbeat CPU  0 instructions:   98000000 cycles:   65892541 heartbeat IPC: 1.47270 cumulative IPC: 1.48727 (Simulation time: 0 hr 2 min 55 sec) 
Heartbeat CPU  0 instructions:   99000000 cycles:   66571545 heartbeat IPC: 1.47275 cumulative IPC: 1.48712 (Simulation time: 0 hr 2 min 57 sec) 
Heartbeat CPU  0 instructions:  100000000 cycles:   67250547 heartbeat IPC: 1.47275 cumulative IPC: 1.48698 (Simulation time: 0 hr 2 min 58 sec) 

Warmup complete CPU  0 instructions:  100000001 cycles:   67250548 (Simulation time: 0 hr 2 min 58 sec) 

Heartbeat CPU  0 instructions:  101000000 cycles:   68385636 heartbeat IPC: 0.88099 cumulative IPC: 0.88099 (Simulation time: 0 hr 3 min 0 sec) 
Heartbeat CPU  0 instructions:  102000002 cycles:   69520216 heartbeat IPC: 0.88139 cumulative IPC: 0.88119 (Simulation time: 0 hr 3 min 2 sec) 
Heartbeat CPU  0 instructions:  103000001 cycles:   70656092 heartbeat IPC: 0.88038 cumulative IPC: 0.88092 (Simulation time: 0 hr 3 min 4 sec) 
Heartbeat CPU  0 instructions:  104000000 cycles:   71789889 heartbeat IPC: 0.88199 cumulative IPC: 0.88118 (Simulation time: 0 hr 3 min 6 sec) 
Heartbeat CPU  0 instructions:  105000001 cycles:   72925921 heartbeat IPC: 0.88026 cumulative IPC: 0.88100 (Simulation time: 0 hr 3 min 8 sec) 
Heartbeat CPU  0 instructions:  106000001 cycles:   74060764 heartbeat IPC: 0.88118 cumulative IPC: 0.88103 (Simulation time: 0 hr 3 min 10 sec) 
Heartbeat CPU  0 instructions:  107000002 cycles:   75411753 heartbeat IPC: 0.74020 cumulative IPC: 0.85772 (Simulation time: 0 hr 3 min 12 sec) 
Heartbeat CPU  0 instructions:  108000000 cycles:   76539791 heartbeat IPC: 0.88649 cumulative IPC: 0.86121 (Simulation time: 0 hr 3 min 14 sec) 
Heartbeat CPU  0 instructions:  109000000 cycles:   77666898 heartbeat IPC: 0.88723 cumulative IPC: 0.86403 (Simulation time: 0 hr 3 min 16 sec) 
Heartbeat CPU  0 instructions:  110000002 cycles:   78792301 heartbeat IPC: 0.88857 cumulative IPC: 0.86642 (Simulation time: 0 hr 3 min 18 sec) 
Heartbeat CPU  0 instructions:  111000000 cycles:   79914937 heartbeat IPC: 0.89076 cumulative IPC: 0.86858 (Simulation time: 0 hr 3 min 20 sec) 
Heartbeat CPU  0 instructions:  112000000 cycles:   81039765 heartbeat IPC: 0.88902 cumulative IPC: 0.87025 (Simulation time: 0 hr 3 min 22 sec) 
Heartbeat CPU  0 instructions:  113000000 cycles:   82167942 heartbeat IPC: 0.88639 cumulative IPC: 0.87147 (Simulation time: 0 hr 3 min 24 sec) 
Heartbeat CPU  0 instructions:  114000002 cycles:   83298139 heartbeat IPC: 0.88480 cumulative IPC: 0.87241 (Simulation time: 0 hr 3 min 26 sec) 
Heartbeat CPU  0 instructions:  115000002 cycles:   84428324 heartbeat IPC: 0.88481 cumulative IPC: 0.87322 (Simulation time: 0 hr 3 min 28 sec) 
Heartbeat CPU  0 instructions:  116000000 cycles:   85558485 heartbeat IPC: 0.88483 cumulative IPC: 0.87394 (Simulation time: 0 hr 3 min 30 sec) 
Heartbeat CPU  0 instructions:  117000002 cycles:   86689355 heartbeat IPC: 0.88428 cumulative IPC: 0.87454 (Simulation time: 0 hr 3 min 32 sec) 
Heartbeat CPU  0 instructions:  118000000 cycles:   87815747 heartbeat IPC: 0.88779 cumulative IPC: 0.87527 (Simulation time: 0 hr 3 min 34 sec) 
Heartbeat CPU  0 instructions:  119000000 cycles:   88943208 heartbeat IPC: 0.88695 cumulative IPC: 0.87587 (Simulation time: 0 hr 3 min 36 sec) 
Heartbeat CPU  0 instructions:  120000000 cycles:   90064096 heartbeat IPC: 0.89215 cumulative IPC: 0.87667 (Simulation time: 0 hr 3 min 38 sec) 
Heartbeat CPU  0 instructions:  121000002 cycles:   91192053 heartbeat IPC: 0.88656 cumulative IPC: 0.87714 (Simulation time: 0 hr 3 min 40 sec) 
Heartbeat CPU  0 instructions:  122000002 cycles:   92317594 heartbeat IPC: 0.88846 cumulative IPC: 0.87765 (Simulation time: 0 hr 3 min 42 sec) 
Heartbeat CPU  0 instructions:  123000003 cycles:   93207582 heartbeat IPC: 1.12361 cumulative IPC: 0.88608 (Simulation time: 0 hr 3 min 44 sec) 
Heartbeat CPU  0 instructions:  124000000 cycles:   94091045 heartbeat IPC: 1.13191 cumulative IPC: 0.89417 (Simulation time: 0 hr 3 min 45 sec) 
Heartbeat CPU  0 instructions:  125000000 cycles:   95168278 heartbeat IPC: 0.92830 cumulative IPC: 0.89549 (Simulation time: 0 hr 3 min 47 sec) 
Heartbeat CPU  0 instructions:  126000000 cycles:   96546649 heartbeat IPC: 0.72549 cumulative IPC: 0.88749 (Simulation time: 0 hr 3 min 49 sec) 
Heartbeat CPU  0 instructions:  127000001 cycles:   97829916 heartbeat IPC: 0.77926 cumulative IPC: 0.88295 (Simulation time: 0 hr 3 min 51 sec) 
Heartbeat CPU  0 instructions:  128000000 cycles:   99119231 heartbeat IPC: 0.77560 cumulative IPC: 0.87861 (Simulation time: 0 hr 3 min 52 sec) 
Heartbeat CPU  0 instructions:  129000003 cycles:  100498123 heartbeat IPC: 0.72522 cumulative IPC: 0.87224 (Simulation time: 0 hr 3 min 54 sec) 
Heartbeat CPU  0 instructions:  130000002 cycles:  101797547 heartbeat IPC: 0.76957 cumulative IPC: 0.86838 (Simulation time: 0 hr 3 min 56 sec) 
Heartbeat CPU  0 instructions:  131000000 cycles:  103133236 heartbeat IPC: 0.74868 cumulative IPC: 0.86393 (Simulation time: 0 hr 3 min 58 sec) 
Heartbeat CPU  0 instructions:  132000000 cycles:  104426316 heartbeat IPC: 0.77335 cumulative IPC: 0.86078 (Simulation time: 0 hr 4 min 0 sec) 
Heartbeat CPU  0 instructions:  133000000 cycles:  105740853 heartbeat IPC: 0.76072 cumulative IPC: 0.85736 (Simulation time: 0 hr 4 min 2 sec) 
Heartbeat CPU  0 instructions:  134000002 cycles:  107061108 heartbeat IPC: 0.75743 cumulative IPC: 0.85404 (Simulation time: 0 hr 4 min 3 sec) 
Heartbeat CPU  0 instructions:  135000002 cycles:  108392332 heartbeat IPC: 0.75119 cumulative IPC: 0.85072 (Simulation time: 0 hr 4 min 5 sec) 
Heartbeat CPU  0 instructions:  136000000 cycles:  109694500 heartbeat IPC: 0.76795 cumulative IPC: 0.84818 (Simulation time: 0 hr 4 min 7 sec) 
Heartbeat CPU  0 instructions:  137000002 cycles:  111008870 heartbeat IPC: 0.76082 cumulative IPC: 0.84555 (Simulation time: 0 hr 4 min 9 sec) 
Heartbeat CPU  0 instructions:  138000000 cycles:  112333009 heartbeat IPC: 0.75521 cumulative IPC: 0.84290 (Simulation time: 0 hr 4 min 11 sec) 
Heartbeat CPU  0 instructions:  139000000 cycles:  113670258 heartbeat IPC: 0.74780 cumulative IPC: 0.84016 (Simulation time: 0 hr 4 min 13 sec) 
Heartbeat CPU  0 instructions:  140000000 cycles:  114992917 heartbeat IPC: 0.75605 cumulative IPC: 0.83783 (Simulation time: 0 hr 4 min 15 sec) 
Heartbeat CPU  0 instructions:  141000000 cycles:  116284472 heartbeat IPC: 0.77426 cumulative IPC: 0.83616 (Simulation time: 0 hr 4 min 16 sec) 
Heartbeat CPU  0 instructions:  142000001 cycles:  117594208 heartbeat IPC: 0.76351 cumulative IPC: 0.83427 (Simulation time: 0 hr 4 min 18 sec) 
Heartbeat CPU  0 instructions:  143000002 cycles:  118915025 heartbeat IPC: 0.75711 cumulative IPC: 0.83229 (Simulation time: 0 hr 4 min 20 sec) 
Heartbeat CPU  0 instructions:  144000000 cycles:  120258480 heartbeat IPC: 0.74435 cumulative IPC: 0.83006 (Simulation time: 0 hr 4 min 22 sec) 
Heartbeat CPU  0 instructions:  145000002 cycles:  121576159 heartbeat IPC: 0.75891 cumulative IPC: 0.82834 (Simulation time: 0 hr 4 min 23 sec) 
Heartbeat CPU  0 instructions:  146000000 cycles:  122916640 heartbeat IPC: 0.74600 cumulative IPC: 0.82636 (Simulation time: 0 hr 4 min 25 sec) 
Heartbeat CPU  0 instructions:  147000003 cycles:  124262169 heartbeat IPC: 0.74320 cumulative IPC: 0.82439 (Simulation time: 0 hr 4 min 27 sec) 
Heartbeat CPU  0 instructions:  148000000 cycles:  125681290 heartbeat IPC: 0.70466 cumulative IPC: 0.82149 (Simulation time: 0 hr 4 min 29 sec) 
Heartbeat CPU  0 instructions:  149000000 cycles:  127337505 heartbeat IPC: 0.60379 cumulative IPC: 0.81548 (Simulation time: 0 hr 4 min 31 sec) 
Heartbeat CPU  0 instructions:  150000002 cycles:  128987295 heartbeat IPC: 0.60614 cumulative IPC: 0.80989 (Simulation time: 0 hr 4 min 33 sec) 
Heartbeat CPU  0 instructions:  151000001 cycles:  130626023 heartbeat IPC: 0.61023 cumulative IPC: 0.80473 (Simulation time: 0 hr 4 min 35 sec) 
Heartbeat CPU  0 instructions:  152000000 cycles:  132161513 heartbeat IPC: 0.65126 cumulative IPC: 0.80110 (Simulation time: 0 hr 4 min 36 sec) 
Heartbeat CPU  0 instructions:  153000002 cycles:  133799640 heartbeat IPC: 0.61045 cumulative IPC: 0.79640 (Simulation time: 0 hr 4 min 38 sec) 
Heartbeat CPU  0 instructions:  154000003 cycles:  135385992 heartbeat IPC: 0.63038 cumulative IPC: 0.79254 (Simulation time: 0 hr 4 min 40 sec) 
Heartbeat CPU  0 instructions:  155000000 cycles:  137019688 heartbeat IPC: 0.61211 cumulative IPC: 0.78831 (Simulation time: 0 hr 4 min 42 sec) 
Heartbeat CPU  0 instructions:  156000000 cycles:  138622466 heartbeat IPC: 0.62392 cumulative IPC: 0.78462 (Simulation time: 0 hr 4 min 44 sec) 
Heartbeat CPU  0 instructions:  157000001 cycles:  140302354 heartbeat IPC: 0.59528 cumulative IPC: 0.78027 (Simulation time: 0 hr 4 min 46 sec) 
Heartbeat CPU  0 instructions:  158000001 cycles:  141866340 heartbeat IPC: 0.63939 cumulative IPC: 0.77732 (Simulation time: 0 hr 4 min 48 sec) 
Heartbeat CPU  0 instructions:  159000001 cycles:  143535679 heartbeat IPC: 0.59904 cumulative IPC: 0.77341 (Simulation time: 0 hr 4 min 50 sec) 
Heartbeat CPU  0 instructions:  160000000 cycles:  145143510 heartbeat IPC: 0.62196 cumulative IPC: 0.77029 (Simulation time: 0 hr 4 min 52 sec) 
Heartbeat CPU  0 instructions:  161000002 cycles:  146814207 heartbeat IPC: 0.59855 cumulative IPC: 0.76668 (Simulation time: 0 hr 4 min 54 sec) 
Heartbeat CPU  0 instructions:  162000003 cycles:  148425265 heartbeat IPC: 0.62071 cumulative IPC: 0.76378 (Simulation time: 0 hr 4 min 55 sec) 
Heartbeat CPU  0 instructions:  163000003 cycles:  150111611 heartbeat IPC: 0.59300 cumulative IPC: 0.76031 (Simulation time: 0 hr 4 min 58 sec) 
Heartbeat CPU  0 instructions:  164000000 cycles:  151716697 heartbeat IPC: 0.62302 cumulative IPC: 0.75770 (Simulation time: 0 hr 5 min 0 sec) 
Heartbeat CPU  0 instructions:  165000000 cycles:  153381881 heartbeat IPC: 0.60053 cumulative IPC: 0.75466 (Simulation time: 0 hr 5 min 2 sec) 
Heartbeat CPU  0 instructions:  166000001 cycles:  154971316 heartbeat IPC: 0.62916 cumulative IPC: 0.75239 (Simulation time: 0 hr 5 min 4 sec) 
Heartbeat CPU  0 instructions:  167000001 cycles:  156635708 heartbeat IPC: 0.60082 cumulative IPC: 0.74957 (Simulation time: 0 hr 5 min 6 sec) 
Heartbeat CPU  0 instructions:  168000000 cycles:  158238416 heartbeat IPC: 0.62394 cumulative IPC: 0.74735 (Simulation time: 0 hr 5 min 8 sec) 
Heartbeat CPU  0 instructions:  169000002 cycles:  159879567 heartbeat IPC: 0.60933 cumulative IPC: 0.74491 (Simulation time: 0 hr 5 min 9 sec) 
Heartbeat CPU  0 instructions:  170000003 cycles:  161485663 heartbeat IPC: 0.62263 cumulative IPC: 0.74282 (Simulation time: 0 hr 5 min 11 sec) 
Heartbeat CPU  0 instructions:  171000001 cycles:  163103735 heartbeat IPC: 0.61802 cumulative IPC: 0.74072 (Simulation time: 0 hr 5 min 13 sec) 
Heartbeat CPU  0 instructions:  172000000 cycles:  164698574 heartbeat IPC: 0.62702 cumulative IPC: 0.73886 (Simulation time: 0 hr 5 min 15 sec) 
Heartbeat CPU  0 instructions:  173000001 cycles:  166299638 heartbeat IPC: 0.62459 cumulative IPC: 0.73701 (Simulation time: 0 hr 5 min 17 sec) 
Heartbeat CPU  0 instructions:  174000001 cycles:  167982781 heartbeat IPC: 0.59413 cumulative IPC: 0.73462 (Simulation time: 0 hr 5 min 19 sec) 
Heartbeat CPU  0 instructions:  175000002 cycles:  169585579 heartbeat IPC: 0.62391 cumulative IPC: 0.73289 (Simulation time: 0 hr 5 min 21 sec) 
Heartbeat CPU  0 instructions:  176000000 cycles:  171214781 heartbeat IPC: 0.61380 cumulative IPC: 0.73102 (Simulation time: 0 hr 5 min 23 sec) 
Heartbeat CPU  0 instructions:  177000003 cycles:  172799798 heartbeat IPC: 0.63091 cumulative IPC: 0.72952 (Simulation time: 0 hr 5 min 24 sec) 
Heartbeat CPU  0 instructions:  178000000 cycles:  174451599 heartbeat IPC: 0.60540 cumulative IPC: 0.72760 (Simulation time: 0 hr 5 min 26 sec) 
Heartbeat CPU  0 instructions:  179000001 cycles:  176043337 heartbeat IPC: 0.62824 cumulative IPC: 0.72615 (Simulation time: 0 hr 5 min 28 sec) 
Heartbeat CPU  0 instructions:  180000000 cycles:  177704147 heartbeat IPC: 0.60212 cumulative IPC: 0.72429 (Simulation time: 0 hr 5 min 30 sec) 
Heartbeat CPU  0 instructions:  181000001 cycles:  179299213 heartbeat IPC: 0.62693 cumulative IPC: 0.72290 (Simulation time: 0 hr 5 min 32 sec) 
Heartbeat CPU  0 instructions:  182000001 cycles:  180968129 heartbeat IPC: 0.59919 cumulative IPC: 0.72108 (Simulation time: 0 hr 5 min 34 sec) 
Heartbeat CPU  0 instructions:  183000002 cycles:  182545731 heartbeat IPC: 0.63387 cumulative IPC: 0.71989 (Simulation time: 0 hr 5 min 36 sec) 
Heartbeat CPU  0 instructions:  184000000 cycles:  184237511 heartbeat IPC: 0.59109 cumulative IPC: 0.71803 (Simulation time: 0 hr 5 min 38 sec) 
Heartbeat CPU  0 instructions:  185000003 cycles:  185841031 heartbeat IPC: 0.62363 cumulative IPC: 0.71675 (Simulation time: 0 hr 5 min 40 sec) 
Heartbeat CPU  0 instructions:  186000003 cycles:  187488470 heartbeat IPC: 0.60700 cumulative IPC: 0.71525 (Simulation time: 0 hr 5 min 42 sec) 
Heartbeat CPU  0 instructions:  187000000 cycles:  189089285 heartbeat IPC: 0.62468 cumulative IPC: 0.71406 (Simulation time: 0 hr 5 min 44 sec) 
Heartbeat CPU  0 instructions:  188000000 cycles:  190776803 heartbeat IPC: 0.59259 cumulative IPC: 0.71240 (Simulation time: 0 hr 5 min 46 sec) 
Heartbeat CPU  0 instructions:  189000001 cycles:  192349212 heartbeat IPC: 0.63597 cumulative IPC: 0.71144 (Simulation time: 0 hr 5 min 48 sec) 
Heartbeat CPU  0 instructions:  190000001 cycles:  194020043 heartbeat IPC: 0.59850 cumulative IPC: 0.70995 (Simulation time: 0 hr 5 min 50 sec) 
Heartbeat CPU  0 instructions:  191000002 cycles:  195616342 heartbeat IPC: 0.62645 cumulative IPC: 0.70891 (Simulation time: 0 hr 5 min 52 sec) 
Heartbeat CPU  0 instructions:  192000000 cycles:  197265701 heartbeat IPC: 0.60629 cumulative IPC: 0.70761 (Simulation time: 0 hr 5 min 54 sec) 
Heartbeat CPU  0 instructions:  193000003 cycles:  198845581 heartbeat IPC: 0.63296 cumulative IPC: 0.70671 (Simulation time: 0 hr 5 min 56 sec) 
Heartbeat CPU  0 instructions:  194000000 cycles:  200549855 heartbeat IPC: 0.58676 cumulative IPC: 0.70518 (Simulation time: 0 hr 5 min 58 sec) 
Heartbeat CPU  0 instructions:  195000000 cycles:  202096576 heartbeat IPC: 0.64653 cumulative IPC: 0.70451 (Simulation time: 0 hr 6 min 0 sec) 
Heartbeat CPU  0 instructions:  196000000 cycles:  203732082 heartbeat IPC: 0.61143 cumulative IPC: 0.70339 (Simulation time: 0 hr 6 min 2 sec) 
Heartbeat CPU  0 instructions:  197000002 cycles:  205338211 heartbeat IPC: 0.62262 cumulative IPC: 0.70245 (Simulation time: 0 hr 6 min 4 sec) 
Heartbeat CPU  0 instructions:  198000001 cycles:  207008336 heartbeat IPC: 0.59876 cumulative IPC: 0.70121 (Simulation time: 0 hr 6 min 6 sec) 
Heartbeat CPU  0 instructions:  199000002 cycles:  208595317 heartbeat IPC: 0.63013 cumulative IPC: 0.70042 (Simulation time: 0 hr 6 min 8 sec) 
Heartbeat CPU  0 instructions:  200000000 cycles:  210246808 heartbeat IPC: 0.60551 cumulative IPC: 0.69932 (Simulation time: 0 hr 6 min 10 sec) 
Finished CPU 0 instructions: 100000001 cycles: 142996268 cumulative IPC: 0.69932 (Simulation time: 0 hr 6 min 10 sec) 

ChampSim completed all CPUs

[ROI Statistics]
Core_0_instructions 100000001
Core_0_cycles 142996268
Core_0_IPC 0.69932

Core_0_branch_prediction_accuracy 99.52414
Core_0_branch_MPKI 0.08716
Core_0_average_ROB_occupancy_at_mispredict 253.73359

Core_0_L1D_total_access 32443075
Core_0_L1D_total_hit 30047637
Core_0_L1D_total_miss 2395438
Core_0_L1D_loads 26320763
Core_0_L1D_load_hit 23925350
Core_0_L1D_load_miss 2395413
Core_0_L1D_RFOs 6122312
Core_0_L1D_RFO_hit 6122287
Core_0_L1D_RFO_miss 25
Core_0_L1D_prefetches 0
Core_0_L1D_prefetch_hit 0
Core_0_L1D_prefetch_miss 0
Core_0_L1D_writebacks 0
Core_0_L1D_writeback_hit 0
Core_0_L1D_writeback_miss 0
Core_0_L1D_prefetch_requested 0
Core_0_L1D_prefetch_issued 0
Core_0_L1D_prefetch_useful 0
Core_0_L1D_prefetch_useless 0
Core_0_L1D_prefetch_late 0
Core_0_L1D_average_miss_latency 74.18827

Core_0_L1I_total_access 21188962
Core_0_L1I_total_hit 21188885
Core_0_L1I_total_miss 77
Core_0_L1I_loads 21188962
Core_0_L1I_load_hit 21188885
Core_0_L1I_load_miss 77
Core_0_L1I_RFOs 0
Core_0_L1I_RFO_hit 0
Core_0_L1I_RFO_miss 0
Core_0_L1I_prefetches 0
Core_0_L1I_prefetch_hit 0
Core_0_L1I_prefetch_miss 0
Core_0_L1I_writebacks 0
Core_0_L1I_writeback_hit 0
Core_0_L1I_writeback_miss 0
Core_0_L1I_prefetch_requested 0
Core_0_L1I_prefetch_issued 0
Core_0_L1I_prefetch_useful 0
Core_0_L1I_prefetch_useless 0
Core_0_L1I_prefetch_late 0
Core_0_L1I_average_miss_latency 192.61039

Core_0_L2C_total_access 4862230
Core_0_L2C_total_hit 2881307
Core_0_L2C_total_miss 1980923
Core_0_L2C_loads 2395488
Core_0_L2C_load_hit 1709062
Core_0_L2C_load_miss 686426
Core_0_L2C_RFOs 25
Core_0_L2C_RFO_hit 0
Core_0_L2C_RFO_miss 25
Core_0_L2C_prefetches 1786437
Core_0_L2C_prefetch_hit 492069
Core_0_L2C_prefetch_miss 1294368
Core_0_L2C_writebacks 680280
Core_0_L2C_writeback_hit 680176
Core_0_L2C_writeback_miss 104
Core_0_L2C_prefetch_requested 5931291
Core_0_L2C_prefetch_issued 5838359
Core_0_L2C_prefetch_useful 1466697
Core_0_L2C_prefetch_useless 541664
Core_0_L2C_prefetch_late 563816
Core_0_L2C_average_miss_latency 294.00527

Core_0_LLC_total_access 2656273
Core_0_LLC_total_hit 695563
Core_0_LLC_total_miss 1960710
Core_0_LLC_loads 122641
Core_0_LLC_load_hit 17042
Core_0_LLC_load_miss 105599
Core_0_LLC_RFOs 25
Core_0_LLC_RFO_hit 0
Core_0_LLC_RFO_miss 25
Core_0_LLC_prefetches 1858153
Core_0_LLC_prefetch_hit 16626
Core_0_LLC_prefetch_miss 1841527
Core_0_LLC_writebacks 675454
Core_0_LLC_writeback_hit 661895
Core_0_LLC_writeback_miss 13559
Core_0_LLC_prefetch_requested 0
Core_0_LLC_prefetch_issued 0
Core_0_LLC_prefetch_useful 47138
Core_0_LLC_prefetch_useless 2311103
Core_0_LLC_prefetch_late 0
Core_0_LLC_average_miss_latency 353.59463

Core_0_major_page_fault 0
Core_0_minor_page_fault 80857

CPU 0 L2C next line prefetcher final stats
Channel_0_RQ_row_buffer_hit 444875
Channel_0_RQ_row_buffer_miss 1502276
Channel_0_WQ_row_buffer_hit 112613
Channel_0_WQ_row_buffer_miss 545313
Channel_0_WQ_full 0
Channel_0_dbus_congested 1065439

avg_congested_cycle 10
