*************************************************
   ChampSim Multicore Out-of-Order Simulator
   Last compiled: Dec 25 2023 18:17:33
*************************************************

trace_0 ./test_trace/459.GemsFDTD-1320B.champsimtrace.xz
Initialize SRRIP state
warmup_instructions 100000000
simulation_instructions 100000000
champsim_seed 264

num_cpus 1
cpu_freq 4000
dram_io_freq 2400
page_size 4096
block_size 64
max_read_per_cycle 8
max_fill_per_cycle 1
dram_channels 1
dram_ranks 1
dram_banks 8
dram_rows 65536
dram_columns 128
dram_row_size 8
dram_size 4096
dram_pages 1048576

fetch_width 6
decode_width 6
exec_width 4
lq_width 2
sq_width 2
retire_width 4
scheduler_size 128
branch_mispredict_penalty 20
rob_size 256
lq_size 72
sq_size 56
num_instr_destinations_sparc 4
num_instr_destinations 2
num_instr_sources 4

itlb_set 16
itlb_way 8
itlb_rq_size 16
itlb_wq_size 16
itlb_pq_size 0
itlb_mshr_size 8
itlb_latency 1

dtlb_set 16
dtlb_way 4
dtlb_rq_size 16
dtlb_wq_size 16
dtlb_pq_size 0
dtlb_mshr_size 8
dtlb_latency 1

stlb_set 128
stlb_way 12
stlb_rq_size 32
stlb_wq_size 32
stlb_pq_size 0
stlb_mshr_size 16
stlb_latency 8

l1i_size 32
l1i_set 64
l1i_way 8
l1i_rq_size 64
l1i_wq_size 64
l1i_pq_size 8
l1i_mshr_size 8
l1i_latency 1

l1d_size 32
l1d_set 64
l1d_way 8
l1d_rq_size 64
l1d_wq_size 64
l1d_pq_size 8
l1d_mshr_size 16
l1d_latency 4

l2c_size 512
l2c_set 1024
l2c_way 8
l2c_rq_size 32
l2c_wq_size 32
l2c_pq_size 16
l2c_mshr_size 32
l2c_latency 10

llc_size 2048
llc_set 2048
llc_way 16
llc_rq_size 32
llc_wq_size 32
llc_pq_size 32
llc_mshr_size 64
llc_latency 20

dram_channel_width 8
dram_wq_size 64
dram_rq_size 64
tRP 15
tRCD 15
tCAS 12.5
dram_dbus_turn_around_time 30
dram_write_high_wm 56
dram_write_low_wm 48
min_dram_writes_per_switch 16
dram_mtps 2400
dram_dbus_return_time 13


Heartbeat CPU  0 instructions:    1000000 cycles:     673612 heartbeat IPC: 1.48453 cumulative IPC: 1.48453 (Simulation time: 0 hr 0 min 2 sec) 
Heartbeat CPU  0 instructions:    2000003 cycles:    1346498 heartbeat IPC: 1.48614 cumulative IPC: 1.48534 (Simulation time: 0 hr 0 min 4 sec) 
Heartbeat CPU  0 instructions:    3000002 cycles:    2019302 heartbeat IPC: 1.48632 cumulative IPC: 1.48566 (Simulation time: 0 hr 0 min 6 sec) 
Heartbeat CPU  0 instructions:    4000000 cycles:    2692218 heartbeat IPC: 1.48607 cumulative IPC: 1.48576 (Simulation time: 0 hr 0 min 8 sec) 
Heartbeat CPU  0 instructions:    5000001 cycles:    3365328 heartbeat IPC: 1.48564 cumulative IPC: 1.48574 (Simulation time: 0 hr 0 min 9 sec) 
Heartbeat CPU  0 instructions:    6000001 cycles:    4037825 heartbeat IPC: 1.48700 cumulative IPC: 1.48595 (Simulation time: 0 hr 0 min 11 sec) 
Heartbeat CPU  0 instructions:    7000001 cycles:    4710460 heartbeat IPC: 1.48669 cumulative IPC: 1.48605 (Simulation time: 0 hr 0 min 13 sec) 
Heartbeat CPU  0 instructions:    8000000 cycles:    5383200 heartbeat IPC: 1.48646 cumulative IPC: 1.48610 (Simulation time: 0 hr 0 min 15 sec) 
Heartbeat CPU  0 instructions:    9000003 cycles:    6056014 heartbeat IPC: 1.48630 cumulative IPC: 1.48613 (Simulation time: 0 hr 0 min 16 sec) 
Heartbeat CPU  0 instructions:   10000003 cycles:    6728782 heartbeat IPC: 1.48640 cumulative IPC: 1.48615 (Simulation time: 0 hr 0 min 18 sec) 
Heartbeat CPU  0 instructions:   11000003 cycles:    7401528 heartbeat IPC: 1.48645 cumulative IPC: 1.48618 (Simulation time: 0 hr 0 min 20 sec) 
Heartbeat CPU  0 instructions:   12000000 cycles:    8074224 heartbeat IPC: 1.48655 cumulative IPC: 1.48621 (Simulation time: 0 hr 0 min 22 sec) 
Heartbeat CPU  0 instructions:   13000000 cycles:    8752012 heartbeat IPC: 1.47539 cumulative IPC: 1.48537 (Simulation time: 0 hr 0 min 23 sec) 
Heartbeat CPU  0 instructions:   14000002 cycles:    9431155 heartbeat IPC: 1.47245 cumulative IPC: 1.48444 (Simulation time: 0 hr 0 min 25 sec) 
Heartbeat CPU  0 instructions:   15000000 cycles:   10110376 heartbeat IPC: 1.47227 cumulative IPC: 1.48362 (Simulation time: 0 hr 0 min 27 sec) 
Heartbeat CPU  0 instructions:   16000000 cycles:   10789622 heartbeat IPC: 1.47222 cumulative IPC: 1.48291 (Simulation time: 0 hr 0 min 29 sec) 
Heartbeat CPU  0 instructions:   17000002 cycles:   11468954 heartbeat IPC: 1.47204 cumulative IPC: 1.48226 (Simulation time: 0 hr 0 min 30 sec) 
Heartbeat CPU  0 instructions:   18000003 cycles:   12148157 heartbeat IPC: 1.47232 cumulative IPC: 1.48171 (Simulation time: 0 hr 0 min 32 sec) 
Heartbeat CPU  0 instructions:   19000003 cycles:   12827282 heartbeat IPC: 1.47248 cumulative IPC: 1.48122 (Simulation time: 0 hr 0 min 34 sec) 
Heartbeat CPU  0 instructions:   20000000 cycles:   13506584 heartbeat IPC: 1.47209 cumulative IPC: 1.48076 (Simulation time: 0 hr 0 min 36 sec) 
Heartbeat CPU  0 instructions:   21000002 cycles:   14185832 heartbeat IPC: 1.47222 cumulative IPC: 1.48035 (Simulation time: 0 hr 0 min 37 sec) 
Heartbeat CPU  0 instructions:   22000000 cycles:   14865078 heartbeat IPC: 1.47222 cumulative IPC: 1.47998 (Simulation time: 0 hr 0 min 39 sec) 
Heartbeat CPU  0 instructions:   23000000 cycles:   15544333 heartbeat IPC: 1.47220 cumulative IPC: 1.47964 (Simulation time: 0 hr 0 min 41 sec) 
Heartbeat CPU  0 instructions:   24000000 cycles:   16223599 heartbeat IPC: 1.47218 cumulative IPC: 1.47933 (Simulation time: 0 hr 0 min 43 sec) 
Heartbeat CPU  0 instructions:   25000001 cycles:   16902986 heartbeat IPC: 1.47192 cumulative IPC: 1.47903 (Simulation time: 0 hr 0 min 44 sec) 
Heartbeat CPU  0 instructions:   26000001 cycles:   17582272 heartbeat IPC: 1.47213 cumulative IPC: 1.47876 (Simulation time: 0 hr 0 min 46 sec) 
Heartbeat CPU  0 instructions:   27000001 cycles:   18261505 heartbeat IPC: 1.47225 cumulative IPC: 1.47852 (Simulation time: 0 hr 0 min 48 sec) 
Heartbeat CPU  0 instructions:   28000000 cycles:   18939913 heartbeat IPC: 1.47404 cumulative IPC: 1.47836 (Simulation time: 0 hr 0 min 49 sec) 
Heartbeat CPU  0 instructions:   29000002 cycles:   19616635 heartbeat IPC: 1.47771 cumulative IPC: 1.47834 (Simulation time: 0 hr 0 min 51 sec) 
Heartbeat CPU  0 instructions:   30000000 cycles:   20293322 heartbeat IPC: 1.47779 cumulative IPC: 1.47832 (Simulation time: 0 hr 0 min 53 sec) 
Heartbeat CPU  0 instructions:   31000000 cycles:   20969932 heartbeat IPC: 1.47796 cumulative IPC: 1.47831 (Simulation time: 0 hr 0 min 55 sec) 
Heartbeat CPU  0 instructions:   32000000 cycles:   21646534 heartbeat IPC: 1.47797 cumulative IPC: 1.47830 (Simulation time: 0 hr 0 min 56 sec) 
Heartbeat CPU  0 instructions:   33000002 cycles:   22323327 heartbeat IPC: 1.47756 cumulative IPC: 1.47827 (Simulation time: 0 hr 0 min 58 sec) 
Heartbeat CPU  0 instructions:   34000000 cycles:   22999985 heartbeat IPC: 1.47785 cumulative IPC: 1.47826 (Simulation time: 0 hr 1 min 0 sec) 
Heartbeat CPU  0 instructions:   35000002 cycles:   23676672 heartbeat IPC: 1.47779 cumulative IPC: 1.47825 (Simulation time: 0 hr 1 min 2 sec) 
Heartbeat CPU  0 instructions:   36000000 cycles:   24353321 heartbeat IPC: 1.47787 cumulative IPC: 1.47824 (Simulation time: 0 hr 1 min 3 sec) 
Heartbeat CPU  0 instructions:   37000000 cycles:   25030144 heartbeat IPC: 1.47749 cumulative IPC: 1.47822 (Simulation time: 0 hr 1 min 5 sec) 
Heartbeat CPU  0 instructions:   38000000 cycles:   25706760 heartbeat IPC: 1.47794 cumulative IPC: 1.47821 (Simulation time: 0 hr 1 min 7 sec) 
Heartbeat CPU  0 instructions:   39000002 cycles:   26383481 heartbeat IPC: 1.47772 cumulative IPC: 1.47820 (Simulation time: 0 hr 1 min 9 sec) 
Heartbeat CPU  0 instructions:   40000000 cycles:   27060297 heartbeat IPC: 1.47750 cumulative IPC: 1.47818 (Simulation time: 0 hr 1 min 10 sec) 
Heartbeat CPU  0 instructions:   41000000 cycles:   27737231 heartbeat IPC: 1.47725 cumulative IPC: 1.47816 (Simulation time: 0 hr 1 min 12 sec) 
Heartbeat CPU  0 instructions:   42000002 cycles:   28413875 heartbeat IPC: 1.47789 cumulative IPC: 1.47815 (Simulation time: 0 hr 1 min 14 sec) 
Heartbeat CPU  0 instructions:   43000002 cycles:   29090515 heartbeat IPC: 1.47789 cumulative IPC: 1.47815 (Simulation time: 0 hr 1 min 15 sec) 
Heartbeat CPU  0 instructions:   44000000 cycles:   29756928 heartbeat IPC: 1.50057 cumulative IPC: 1.47865 (Simulation time: 0 hr 1 min 17 sec) 
Heartbeat CPU  0 instructions:   45000003 cycles:   30423284 heartbeat IPC: 1.50070 cumulative IPC: 1.47913 (Simulation time: 0 hr 1 min 19 sec) 
Heartbeat CPU  0 instructions:   46000001 cycles:   31089421 heartbeat IPC: 1.50119 cumulative IPC: 1.47960 (Simulation time: 0 hr 1 min 21 sec) 
Heartbeat CPU  0 instructions:   47000000 cycles:   31755650 heartbeat IPC: 1.50098 cumulative IPC: 1.48005 (Simulation time: 0 hr 1 min 22 sec) 
Heartbeat CPU  0 instructions:   48000000 cycles:   32421665 heartbeat IPC: 1.50147 cumulative IPC: 1.48049 (Simulation time: 0 hr 1 min 24 sec) 
Heartbeat CPU  0 instructions:   49000000 cycles:   33087772 heartbeat IPC: 1.50126 cumulative IPC: 1.48091 (Simulation time: 0 hr 1 min 26 sec) 
Heartbeat CPU  0 instructions:   50000003 cycles:   33754136 heartbeat IPC: 1.50069 cumulative IPC: 1.48130 (Simulation time: 0 hr 1 min 28 sec) 
Heartbeat CPU  0 instructions:   51000003 cycles:   34420329 heartbeat IPC: 1.50107 cumulative IPC: 1.48168 (Simulation time: 0 hr 1 min 29 sec) 
Heartbeat CPU  0 instructions:   52000000 cycles:   35086668 heartbeat IPC: 1.50073 cumulative IPC: 1.48204 (Simulation time: 0 hr 1 min 31 sec) 
Heartbeat CPU  0 instructions:   53000003 cycles:   35752866 heartbeat IPC: 1.50106 cumulative IPC: 1.48240 (Simulation time: 0 hr 1 min 33 sec) 
Heartbeat CPU  0 instructions:   54000000 cycles:   36418795 heartbeat IPC: 1.50166 cumulative IPC: 1.48275 (Simulation time: 0 hr 1 min 35 sec) 
Heartbeat CPU  0 instructions:   55000000 cycles:   37085018 heartbeat IPC: 1.50100 cumulative IPC: 1.48308 (Simulation time: 0 hr 1 min 37 sec) 
Heartbeat CPU  0 instructions:   56000000 cycles:   37746856 heartbeat IPC: 1.51094 cumulative IPC: 1.48357 (Simulation time: 0 hr 1 min 38 sec) 
Heartbeat CPU  0 instructions:   57000003 cycles:   38408118 heartbeat IPC: 1.51226 cumulative IPC: 1.48406 (Simulation time: 0 hr 1 min 40 sec) 
Heartbeat CPU  0 instructions:   58000000 cycles:   39069612 heartbeat IPC: 1.51172 cumulative IPC: 1.48453 (Simulation time: 0 hr 1 min 42 sec) 
Heartbeat CPU  0 instructions:   59000000 cycles:   39730922 heartbeat IPC: 1.51215 cumulative IPC: 1.48499 (Simulation time: 0 hr 1 min 43 sec) 
Heartbeat CPU  0 instructions:   60000000 cycles:   40392200 heartbeat IPC: 1.51222 cumulative IPC: 1.48544 (Simulation time: 0 hr 1 min 45 sec) 
Heartbeat CPU  0 instructions:   61000001 cycles:   41054062 heartbeat IPC: 1.51089 cumulative IPC: 1.48585 (Simulation time: 0 hr 1 min 47 sec) 
Heartbeat CPU  0 instructions:   62000000 cycles:   41715480 heartbeat IPC: 1.51190 cumulative IPC: 1.48626 (Simulation time: 0 hr 1 min 49 sec) 
Heartbeat CPU  0 instructions:   63000001 cycles:   42376935 heartbeat IPC: 1.51182 cumulative IPC: 1.48666 (Simulation time: 0 hr 1 min 50 sec) 
Heartbeat CPU  0 instructions:   64000000 cycles:   43038290 heartbeat IPC: 1.51205 cumulative IPC: 1.48705 (Simulation time: 0 hr 1 min 52 sec) 
Heartbeat CPU  0 instructions:   65000003 cycles:   43699752 heartbeat IPC: 1.51181 cumulative IPC: 1.48742 (Simulation time: 0 hr 1 min 54 sec) 
Heartbeat CPU  0 instructions:   66000000 cycles:   44361066 heartbeat IPC: 1.51214 cumulative IPC: 1.48779 (Simulation time: 0 hr 1 min 56 sec) 
Heartbeat CPU  0 instructions:   67000000 cycles:   45022692 heartbeat IPC: 1.51143 cumulative IPC: 1.48814 (Simulation time: 0 hr 1 min 57 sec) 
Heartbeat CPU  0 instructions:   68000000 cycles:   45692867 heartbeat IPC: 1.49215 cumulative IPC: 1.48820 (Simulation time: 0 hr 1 min 59 sec) 
Heartbeat CPU  0 instructions:   69000002 cycles:   46363629 heartbeat IPC: 1.49084 cumulative IPC: 1.48824 (Simulation time: 0 hr 2 min 1 sec) 
Heartbeat CPU  0 instructions:   70000001 cycles:   47034702 heartbeat IPC: 1.49015 cumulative IPC: 1.48826 (Simulation time: 0 hr 2 min 3 sec) 
Heartbeat CPU  0 instructions:   71000002 cycles:   47705514 heartbeat IPC: 1.49073 cumulative IPC: 1.48830 (Simulation time: 0 hr 2 min 4 sec) 
Heartbeat CPU  0 instructions:   72000000 cycles:   48376571 heartbeat IPC: 1.49018 cumulative IPC: 1.48832 (Simulation time: 0 hr 2 min 6 sec) 
Heartbeat CPU  0 instructions:   73000002 cycles:   49047534 heartbeat IPC: 1.49040 cumulative IPC: 1.48835 (Simulation time: 0 hr 2 min 8 sec) 
Heartbeat CPU  0 instructions:   74000000 cycles:   49718326 heartbeat IPC: 1.49077 cumulative IPC: 1.48838 (Simulation time: 0 hr 2 min 10 sec) 
Heartbeat CPU  0 instructions:   75000001 cycles:   50389493 heartbeat IPC: 1.48994 cumulative IPC: 1.48841 (Simulation time: 0 hr 2 min 11 sec) 
Heartbeat CPU  0 instructions:   76000000 cycles:   51060069 heartbeat IPC: 1.49125 cumulative IPC: 1.48844 (Simulation time: 0 hr 2 min 13 sec) 
Heartbeat CPU  0 instructions:   77000000 cycles:   51731108 heartbeat IPC: 1.49023 cumulative IPC: 1.48847 (Simulation time: 0 hr 2 min 15 sec) 
Heartbeat CPU  0 instructions:   78000003 cycles:   52402011 heartbeat IPC: 1.49053 cumulative IPC: 1.48849 (Simulation time: 0 hr 2 min 17 sec) 
Heartbeat CPU  0 instructions:   79000002 cycles:   53072802 heartbeat IPC: 1.49078 cumulative IPC: 1.48852 (Simulation time: 0 hr 2 min 18 sec) 
Heartbeat CPU  0 instructions:   80000000 cycles:   53745653 heartbeat IPC: 1.48621 cumulative IPC: 1.48849 (Simulation time: 0 hr 2 min 20 sec) 
Heartbeat CPU  0 instructions:   81000003 cycles:   54419487 heartbeat IPC: 1.48405 cumulative IPC: 1.48844 (Simulation time: 0 hr 2 min 22 sec) 
Heartbeat CPU  0 instructions:   82000001 cycles:   55092680 heartbeat IPC: 1.48546 cumulative IPC: 1.48840 (Simulation time: 0 hr 2 min 24 sec) 
Heartbeat CPU  0 instructions:   83000002 cycles:   55766243 heartbeat IPC: 1.48464 cumulative IPC: 1.48836 (Simulation time: 0 hr 2 min 25 sec) 
Heartbeat CPU  0 instructions:   84000000 cycles:   56439317 heartbeat IPC: 1.48572 cumulative IPC: 1.48832 (Simulation time: 0 hr 2 min 27 sec) 
Heartbeat CPU  0 instructions:   85000000 cycles:   57112904 heartbeat IPC: 1.48459 cumulative IPC: 1.48828 (Simulation time: 0 hr 2 min 29 sec) 
Heartbeat CPU  0 instructions:   86000001 cycles:   57786256 heartbeat IPC: 1.48511 cumulative IPC: 1.48824 (Simulation time: 0 hr 2 min 31 sec) 
Heartbeat CPU  0 instructions:   87000000 cycles:   58459678 heartbeat IPC: 1.48495 cumulative IPC: 1.48821 (Simulation time: 0 hr 2 min 32 sec) 
Heartbeat CPU  0 instructions:   88000000 cycles:   59133096 heartbeat IPC: 1.48496 cumulative IPC: 1.48817 (Simulation time: 0 hr 2 min 34 sec) 
Heartbeat CPU  0 instructions:   89000002 cycles:   59806580 heartbeat IPC: 1.48482 cumulative IPC: 1.48813 (Simulation time: 0 hr 2 min 36 sec) 
Heartbeat CPU  0 instructions:   90000001 cycles:   60479721 heartbeat IPC: 1.48557 cumulative IPC: 1.48810 (Simulation time: 0 hr 2 min 38 sec) 
Heartbeat CPU  0 instructions:   91000000 cycles:   61152939 heartbeat IPC: 1.48540 cumulative IPC: 1.48807 (Simulation time: 0 hr 2 min 39 sec) 
Heartbeat CPU  0 instructions:   92000000 cycles:   61829429 heartbeat IPC: 1.47822 cumulative IPC: 1.48796 (Simulation time: 0 hr 2 min 41 sec) 
Heartbeat CPU  0 instructions:   93000001 cycles:   62508703 heartbeat IPC: 1.47216 cumulative IPC: 1.48779 (Simulation time: 0 hr 2 min 43 sec) 
Heartbeat CPU  0 instructions:   94000001 cycles:   63187839 heartbeat IPC: 1.47246 cumulative IPC: 1.48763 (Simulation time: 0 hr 2 min 45 sec) 
Heartbeat CPU  0 instructions:   95000001 cycles:   63867091 heartbeat IPC: 1.47221 cumulative IPC: 1.48746 (Simulation time: 0 hr 2 min 46 sec) 
Heartbeat CPU  0 instructions:   96000000 cycles:   64546323 heartbeat IPC: 1.47225 cumulative IPC: 1.48730 (Simulation time: 0 hr 2 min 48 sec) 
Heartbeat CPU  0 instructions:   97000000 cycles:   65225572 heartbeat IPC: 1.47221 cumulative IPC: 1.48715 (Simulation time: 0 hr 2 min 50 sec) 
Heartbeat CPU  0 instructions:   98000000 cycles:   65904812 heartbeat IPC: 1.47223 cumulative IPC: 1.48699 (Simulation time: 0 hr 2 min 52 sec) 
Heartbeat CPU  0 instructions:   99000000 cycles:   66584043 heartbeat IPC: 1.47225 cumulative IPC: 1.48684 (Simulation time: 0 hr 2 min 53 sec) 
Heartbeat CPU  0 instructions:  100000000 cycles:   67263299 heartbeat IPC: 1.47220 cumulative IPC: 1.48669 (Simulation time: 0 hr 2 min 55 sec) 

Warmup complete CPU  0 instructions:  100000001 cycles:   67263300 (Simulation time: 0 hr 2 min 55 sec) 

Heartbeat CPU  0 instructions:  101000000 cycles:   68715577 heartbeat IPC: 0.68857 cumulative IPC: 0.68857 (Simulation time: 0 hr 2 min 57 sec) 
Heartbeat CPU  0 instructions:  102000002 cycles:   70171609 heartbeat IPC: 0.68680 cumulative IPC: 0.68769 (Simulation time: 0 hr 2 min 59 sec) 
Heartbeat CPU  0 instructions:  103000001 cycles:   71626219 heartbeat IPC: 0.68747 cumulative IPC: 0.68761 (Simulation time: 0 hr 3 min 1 sec) 
Heartbeat CPU  0 instructions:  104000000 cycles:   73084604 heartbeat IPC: 0.68569 cumulative IPC: 0.68713 (Simulation time: 0 hr 3 min 3 sec) 
Heartbeat CPU  0 instructions:  105000001 cycles:   74544905 heartbeat IPC: 0.68479 cumulative IPC: 0.68666 (Simulation time: 0 hr 3 min 5 sec) 
Heartbeat CPU  0 instructions:  106000001 cycles:   76000714 heartbeat IPC: 0.68690 cumulative IPC: 0.68670 (Simulation time: 0 hr 3 min 7 sec) 
Heartbeat CPU  0 instructions:  107000002 cycles:   77611747 heartbeat IPC: 0.62072 cumulative IPC: 0.67643 (Simulation time: 0 hr 3 min 9 sec) 
Heartbeat CPU  0 instructions:  108000000 cycles:   79059140 heartbeat IPC: 0.69090 cumulative IPC: 0.67821 (Simulation time: 0 hr 3 min 11 sec) 
Heartbeat CPU  0 instructions:  109000000 cycles:   80507493 heartbeat IPC: 0.69044 cumulative IPC: 0.67954 (Simulation time: 0 hr 3 min 13 sec) 
Heartbeat CPU  0 instructions:  110000002 cycles:   81954635 heartbeat IPC: 0.69102 cumulative IPC: 0.68067 (Simulation time: 0 hr 3 min 16 sec) 
Heartbeat CPU  0 instructions:  111000000 cycles:   83401696 heartbeat IPC: 0.69105 cumulative IPC: 0.68160 (Simulation time: 0 hr 3 min 18 sec) 
Heartbeat CPU  0 instructions:  112000000 cycles:   84849710 heartbeat IPC: 0.69060 cumulative IPC: 0.68235 (Simulation time: 0 hr 3 min 20 sec) 
Heartbeat CPU  0 instructions:  113000000 cycles:   86300136 heartbeat IPC: 0.68945 cumulative IPC: 0.68289 (Simulation time: 0 hr 3 min 22 sec) 
Heartbeat CPU  0 instructions:  114000002 cycles:   87748709 heartbeat IPC: 0.69034 cumulative IPC: 0.68341 (Simulation time: 0 hr 3 min 24 sec) 
Heartbeat CPU  0 instructions:  115000002 cycles:   89189460 heartbeat IPC: 0.69408 cumulative IPC: 0.68411 (Simulation time: 0 hr 3 min 26 sec) 
Heartbeat CPU  0 instructions:  116000000 cycles:   90633690 heartbeat IPC: 0.69241 cumulative IPC: 0.68463 (Simulation time: 0 hr 3 min 28 sec) 
Heartbeat CPU  0 instructions:  117000002 cycles:   92075144 heartbeat IPC: 0.69375 cumulative IPC: 0.68516 (Simulation time: 0 hr 3 min 30 sec) 
Heartbeat CPU  0 instructions:  118000000 cycles:   93520994 heartbeat IPC: 0.69163 cumulative IPC: 0.68551 (Simulation time: 0 hr 3 min 32 sec) 
Heartbeat CPU  0 instructions:  119000000 cycles:   94960680 heartbeat IPC: 0.69460 cumulative IPC: 0.68599 (Simulation time: 0 hr 3 min 34 sec) 
Heartbeat CPU  0 instructions:  120000000 cycles:   96409859 heartbeat IPC: 0.69005 cumulative IPC: 0.68619 (Simulation time: 0 hr 3 min 36 sec) 
Heartbeat CPU  0 instructions:  121000002 cycles:   97856185 heartbeat IPC: 0.69141 cumulative IPC: 0.68643 (Simulation time: 0 hr 3 min 38 sec) 
Heartbeat CPU  0 instructions:  122000002 cycles:   99304348 heartbeat IPC: 0.69053 cumulative IPC: 0.68662 (Simulation time: 0 hr 3 min 40 sec) 
Heartbeat CPU  0 instructions:  123000003 cycles:  101017461 heartbeat IPC: 0.58373 cumulative IPC: 0.68140 (Simulation time: 0 hr 3 min 42 sec) 
Heartbeat CPU  0 instructions:  124000000 cycles:  102857524 heartbeat IPC: 0.54346 cumulative IPC: 0.67427 (Simulation time: 0 hr 3 min 44 sec) 
Heartbeat CPU  0 instructions:  125000000 cycles:  105178070 heartbeat IPC: 0.43093 cumulative IPC: 0.65937 (Simulation time: 0 hr 3 min 46 sec) 
Heartbeat CPU  0 instructions:  126000001 cycles:  107808827 heartbeat IPC: 0.38012 cumulative IPC: 0.64125 (Simulation time: 0 hr 3 min 48 sec) 
Heartbeat CPU  0 instructions:  127000001 cycles:  110382176 heartbeat IPC: 0.38860 cumulative IPC: 0.62618 (Simulation time: 0 hr 3 min 50 sec) 
Heartbeat CPU  0 instructions:  128000000 cycles:  112938369 heartbeat IPC: 0.39121 cumulative IPC: 0.61303 (Simulation time: 0 hr 3 min 52 sec) 
Heartbeat CPU  0 instructions:  129000003 cycles:  115565703 heartbeat IPC: 0.38062 cumulative IPC: 0.60038 (Simulation time: 0 hr 3 min 54 sec) 
Heartbeat CPU  0 instructions:  130000002 cycles:  118136031 heartbeat IPC: 0.38906 cumulative IPC: 0.58971 (Simulation time: 0 hr 3 min 56 sec) 
Heartbeat CPU  0 instructions:  131000000 cycles:  120718189 heartbeat IPC: 0.38727 cumulative IPC: 0.57993 (Simulation time: 0 hr 3 min 59 sec) 
Heartbeat CPU  0 instructions:  132000000 cycles:  123287888 heartbeat IPC: 0.38915 cumulative IPC: 0.57118 (Simulation time: 0 hr 4 min 1 sec) 
Heartbeat CPU  0 instructions:  133000000 cycles:  125860268 heartbeat IPC: 0.38875 cumulative IPC: 0.56317 (Simulation time: 0 hr 4 min 3 sec) 
Heartbeat CPU  0 instructions:  134000002 cycles:  128439402 heartbeat IPC: 0.38773 cumulative IPC: 0.55577 (Simulation time: 0 hr 4 min 5 sec) 
Heartbeat CPU  0 instructions:  135000001 cycles:  131015326 heartbeat IPC: 0.38821 cumulative IPC: 0.54900 (Simulation time: 0 hr 4 min 7 sec) 
Heartbeat CPU  0 instructions:  136000000 cycles:  133582715 heartbeat IPC: 0.38950 cumulative IPC: 0.54283 (Simulation time: 0 hr 4 min 10 sec) 
Heartbeat CPU  0 instructions:  137000002 cycles:  136157489 heartbeat IPC: 0.38838 cumulative IPC: 0.53706 (Simulation time: 0 hr 4 min 12 sec) 
Heartbeat CPU  0 instructions:  138000000 cycles:  138743744 heartbeat IPC: 0.38666 cumulative IPC: 0.53161 (Simulation time: 0 hr 4 min 14 sec) 
Heartbeat CPU  0 instructions:  139000000 cycles:  141351595 heartbeat IPC: 0.38346 cumulative IPC: 0.52640 (Simulation time: 0 hr 4 min 16 sec) 
Heartbeat CPU  0 instructions:  140000000 cycles:  143952597 heartbeat IPC: 0.38447 cumulative IPC: 0.52159 (Simulation time: 0 hr 4 min 18 sec) 
Heartbeat CPU  0 instructions:  141000000 cycles:  146523414 heartbeat IPC: 0.38898 cumulative IPC: 0.51728 (Simulation time: 0 hr 4 min 20 sec) 
Heartbeat CPU  0 instructions:  142000001 cycles:  149108060 heartbeat IPC: 0.38690 cumulative IPC: 0.51317 (Simulation time: 0 hr 4 min 23 sec) 
Heartbeat CPU  0 instructions:  143000001 cycles:  151727433 heartbeat IPC: 0.38177 cumulative IPC: 0.50909 (Simulation time: 0 hr 4 min 25 sec) 
Heartbeat CPU  0 instructions:  144000000 cycles:  154348602 heartbeat IPC: 0.38151 cumulative IPC: 0.50525 (Simulation time: 0 hr 4 min 27 sec) 
Heartbeat CPU  0 instructions:  145000002 cycles:  156939333 heartbeat IPC: 0.38599 cumulative IPC: 0.50181 (Simulation time: 0 hr 4 min 29 sec) 
Heartbeat CPU  0 instructions:  146000000 cycles:  159568705 heartbeat IPC: 0.38032 cumulative IPC: 0.49835 (Simulation time: 0 hr 4 min 31 sec) 
Heartbeat CPU  0 instructions:  147000000 cycles:  162201817 heartbeat IPC: 0.37978 cumulative IPC: 0.49506 (Simulation time: 0 hr 4 min 34 sec) 
Heartbeat CPU  0 instructions:  148000000 cycles:  164986099 heartbeat IPC: 0.35916 cumulative IPC: 0.49119 (Simulation time: 0 hr 4 min 36 sec) 
Heartbeat CPU  0 instructions:  149000000 cycles:  168233166 heartbeat IPC: 0.30797 cumulative IPC: 0.48529 (Simulation time: 0 hr 4 min 38 sec) 
Heartbeat CPU  0 instructions:  150000002 cycles:  171336660 heartbeat IPC: 0.32222 cumulative IPC: 0.48043 (Simulation time: 0 hr 4 min 41 sec) 
Heartbeat CPU  0 instructions:  151000001 cycles:  174562659 heartbeat IPC: 0.30998 cumulative IPC: 0.47531 (Simulation time: 0 hr 4 min 43 sec) 
Heartbeat CPU  0 instructions:  152000000 cycles:  177625716 heartbeat IPC: 0.32647 cumulative IPC: 0.47117 (Simulation time: 0 hr 4 min 45 sec) 
Heartbeat CPU  0 instructions:  153000002 cycles:  180819687 heartbeat IPC: 0.31309 cumulative IPC: 0.46673 (Simulation time: 0 hr 4 min 48 sec) 
Heartbeat CPU  0 instructions:  154000003 cycles:  183891069 heartbeat IPC: 0.32559 cumulative IPC: 0.46301 (Simulation time: 0 hr 4 min 50 sec) 
Heartbeat CPU  0 instructions:  155000003 cycles:  187085758 heartbeat IPC: 0.31302 cumulative IPC: 0.45901 (Simulation time: 0 hr 4 min 52 sec) 
Heartbeat CPU  0 instructions:  156000000 cycles:  190170915 heartbeat IPC: 0.32413 cumulative IPC: 0.45563 (Simulation time: 0 hr 4 min 55 sec) 
Heartbeat CPU  0 instructions:  157000001 cycles:  193408977 heartbeat IPC: 0.30883 cumulative IPC: 0.45186 (Simulation time: 0 hr 4 min 57 sec) 
Heartbeat CPU  0 instructions:  158000001 cycles:  196497420 heartbeat IPC: 0.32379 cumulative IPC: 0.44880 (Simulation time: 0 hr 4 min 59 sec) 
Heartbeat CPU  0 instructions:  159000001 cycles:  199722104 heartbeat IPC: 0.31011 cumulative IPC: 0.44542 (Simulation time: 0 hr 5 min 2 sec) 
Heartbeat CPU  0 instructions:  160000000 cycles:  202834112 heartbeat IPC: 0.32134 cumulative IPC: 0.44257 (Simulation time: 0 hr 5 min 4 sec) 
Heartbeat CPU  0 instructions:  161000002 cycles:  206058138 heartbeat IPC: 0.31017 cumulative IPC: 0.43950 (Simulation time: 0 hr 5 min 6 sec) 
Heartbeat CPU  0 instructions:  162000002 cycles:  209181022 heartbeat IPC: 0.32022 cumulative IPC: 0.43687 (Simulation time: 0 hr 5 min 9 sec) 
Heartbeat CPU  0 instructions:  163000003 cycles:  212436974 heartbeat IPC: 0.30713 cumulative IPC: 0.43396 (Simulation time: 0 hr 5 min 11 sec) 
Heartbeat CPU  0 instructions:  164000000 cycles:  215539739 heartbeat IPC: 0.32229 cumulative IPC: 0.43163 (Simulation time: 0 hr 5 min 14 sec) 
Heartbeat CPU  0 instructions:  165000000 cycles:  218760798 heartbeat IPC: 0.31046 cumulative IPC: 0.42905 (Simulation time: 0 hr 5 min 16 sec) 
Heartbeat CPU  0 instructions:  166000002 cycles:  221845045 heartbeat IPC: 0.32423 cumulative IPC: 0.42696 (Simulation time: 0 hr 5 min 18 sec) 
Heartbeat CPU  0 instructions:  167000001 cycles:  225063952 heartbeat IPC: 0.31066 cumulative IPC: 0.42459 (Simulation time: 0 hr 5 min 21 sec) 
Heartbeat CPU  0 instructions:  168000000 cycles:  228172802 heartbeat IPC: 0.32166 cumulative IPC: 0.42260 (Simulation time: 0 hr 5 min 23 sec) 
Heartbeat CPU  0 instructions:  169000002 cycles:  231350400 heartbeat IPC: 0.31470 cumulative IPC: 0.42051 (Simulation time: 0 hr 5 min 25 sec) 
Heartbeat CPU  0 instructions:  170000003 cycles:  234460666 heartbeat IPC: 0.32152 cumulative IPC: 0.41867 (Simulation time: 0 hr 5 min 28 sec) 
Heartbeat CPU  0 instructions:  171000001 cycles:  237592418 heartbeat IPC: 0.31931 cumulative IPC: 0.41684 (Simulation time: 0 hr 5 min 30 sec) 
Heartbeat CPU  0 instructions:  172000000 cycles:  240723585 heartbeat IPC: 0.31937 cumulative IPC: 0.41508 (Simulation time: 0 hr 5 min 32 sec) 
Heartbeat CPU  0 instructions:  173000001 cycles:  243816428 heartbeat IPC: 0.32333 cumulative IPC: 0.41347 (Simulation time: 0 hr 5 min 35 sec) 
Heartbeat CPU  0 instructions:  174000001 cycles:  247039424 heartbeat IPC: 0.31027 cumulative IPC: 0.41162 (Simulation time: 0 hr 5 min 37 sec) 
Heartbeat CPU  0 instructions:  175000003 cycles:  250131223 heartbeat IPC: 0.32344 cumulative IPC: 0.41013 (Simulation time: 0 hr 5 min 40 sec) 
Heartbeat CPU  0 instructions:  176000000 cycles:  253328016 heartbeat IPC: 0.31281 cumulative IPC: 0.40846 (Simulation time: 0 hr 5 min 42 sec) 
Heartbeat CPU  0 instructions:  177000003 cycles:  256387282 heartbeat IPC: 0.32688 cumulative IPC: 0.40714 (Simulation time: 0 hr 5 min 45 sec) 
Heartbeat CPU  0 instructions:  178000000 cycles:  259588314 heartbeat IPC: 0.31240 cumulative IPC: 0.40556 (Simulation time: 0 hr 5 min 47 sec) 
Heartbeat CPU  0 instructions:  179000001 cycles:  262677835 heartbeat IPC: 0.32368 cumulative IPC: 0.40427 (Simulation time: 0 hr 5 min 49 sec) 
Heartbeat CPU  0 instructions:  180000000 cycles:  265922344 heartbeat IPC: 0.30821 cumulative IPC: 0.40270 (Simulation time: 0 hr 5 min 52 sec) 
Heartbeat CPU  0 instructions:  181000001 cycles:  269018893 heartbeat IPC: 0.32294 cumulative IPC: 0.40148 (Simulation time: 0 hr 5 min 54 sec) 
Heartbeat CPU  0 instructions:  182000001 cycles:  272255083 heartbeat IPC: 0.30901 cumulative IPC: 0.40002 (Simulation time: 0 hr 5 min 57 sec) 
Heartbeat CPU  0 instructions:  183000002 cycles:  275360540 heartbeat IPC: 0.32201 cumulative IPC: 0.39885 (Simulation time: 0 hr 5 min 59 sec) 
Heartbeat CPU  0 instructions:  184000000 cycles:  278610914 heartbeat IPC: 0.30766 cumulative IPC: 0.39745 (Simulation time: 0 hr 6 min 1 sec) 
Heartbeat CPU  0 instructions:  185000003 cycles:  281701127 heartbeat IPC: 0.32360 cumulative IPC: 0.39639 (Simulation time: 0 hr 6 min 4 sec) 
Heartbeat CPU  0 instructions:  186000003 cycles:  284919989 heartbeat IPC: 0.31067 cumulative IPC: 0.39512 (Simulation time: 0 hr 6 min 7 sec) 
Heartbeat CPU  0 instructions:  187000000 cycles:  288008041 heartbeat IPC: 0.32383 cumulative IPC: 0.39412 (Simulation time: 0 hr 6 min 9 sec) 
Heartbeat CPU  0 instructions:  188000000 cycles:  291248972 heartbeat IPC: 0.30855 cumulative IPC: 0.39288 (Simulation time: 0 hr 6 min 11 sec) 
Heartbeat CPU  0 instructions:  189000001 cycles:  294324659 heartbeat IPC: 0.32513 cumulative IPC: 0.39196 (Simulation time: 0 hr 6 min 14 sec) 
Heartbeat CPU  0 instructions:  190000001 cycles:  297554681 heartbeat IPC: 0.30960 cumulative IPC: 0.39081 (Simulation time: 0 hr 6 min 16 sec) 
Heartbeat CPU  0 instructions:  191000002 cycles:  300655821 heartbeat IPC: 0.32246 cumulative IPC: 0.38990 (Simulation time: 0 hr 6 min 19 sec) 
Heartbeat CPU  0 instructions:  192000000 cycles:  303849439 heartbeat IPC: 0.31312 cumulative IPC: 0.38886 (Simulation time: 0 hr 6 min 21 sec) 
Heartbeat CPU  0 instructions:  193000003 cycles:  306906281 heartbeat IPC: 0.32714 cumulative IPC: 0.38808 (Simulation time: 0 hr 6 min 23 sec) 
Heartbeat CPU  0 instructions:  194000000 cycles:  310139000 heartbeat IPC: 0.30934 cumulative IPC: 0.38703 (Simulation time: 0 hr 6 min 26 sec) 
Heartbeat CPU  0 instructions:  195000000 cycles:  313187502 heartbeat IPC: 0.32803 cumulative IPC: 0.38630 (Simulation time: 0 hr 6 min 28 sec) 
Heartbeat CPU  0 instructions:  196000000 cycles:  316394716 heartbeat IPC: 0.31180 cumulative IPC: 0.38534 (Simulation time: 0 hr 6 min 31 sec) 
Heartbeat CPU  0 instructions:  197000002 cycles:  319487916 heartbeat IPC: 0.32329 cumulative IPC: 0.38458 (Simulation time: 0 hr 6 min 33 sec) 
Heartbeat CPU  0 instructions:  198000001 cycles:  322708270 heartbeat IPC: 0.31052 cumulative IPC: 0.38364 (Simulation time: 0 hr 6 min 35 sec) 
Heartbeat CPU  0 instructions:  199000002 cycles:  325789144 heartbeat IPC: 0.32458 cumulative IPC: 0.38294 (Simulation time: 0 hr 6 min 38 sec) 
Heartbeat CPU  0 instructions:  200000000 cycles:  329013484 heartbeat IPC: 0.31014 cumulative IPC: 0.38204 (Simulation time: 0 hr 6 min 40 sec) 
Finished CPU 0 instructions: 100000001 cycles: 261750192 cumulative IPC: 0.38204 (Simulation time: 0 hr 6 min 40 sec) 

ChampSim completed all CPUs

[ROI Statistics]
Core_0_instructions 100000001
Core_0_cycles 261750192
Core_0_IPC 0.38204

Core_0_branch_prediction_accuracy 99.52414
Core_0_branch_MPKI 0.08716
Core_0_average_ROB_occupancy_at_mispredict 253.66820

Core_0_L1D_total_access 31840147
Core_0_L1D_total_hit 29444751
Core_0_L1D_total_miss 2395396
Core_0_L1D_loads 25717834
Core_0_L1D_load_hit 23322463
Core_0_L1D_load_miss 2395371
Core_0_L1D_RFOs 6122313
Core_0_L1D_RFO_hit 6122288
Core_0_L1D_RFO_miss 25
Core_0_L1D_prefetches 0
Core_0_L1D_prefetch_hit 0
Core_0_L1D_prefetch_miss 0
Core_0_L1D_writebacks 0
Core_0_L1D_writeback_hit 0
Core_0_L1D_writeback_miss 0
Core_0_L1D_prefetch_requested 0
Core_0_L1D_prefetch_issued 0
Core_0_L1D_prefetch_useful 0
Core_0_L1D_prefetch_useless 0
Core_0_L1D_prefetch_late 0
Core_0_L1D_average_miss_latency 226.48030

Core_0_L1I_total_access 21690725
Core_0_L1I_total_hit 21690648
Core_0_L1I_total_miss 77
Core_0_L1I_loads 21690725
Core_0_L1I_load_hit 21690648
Core_0_L1I_load_miss 77
Core_0_L1I_RFOs 0
Core_0_L1I_RFO_hit 0
Core_0_L1I_RFO_miss 0
Core_0_L1I_prefetches 0
Core_0_L1I_prefetch_hit 0
Core_0_L1I_prefetch_miss 0
Core_0_L1I_writebacks 0
Core_0_L1I_writeback_hit 0
Core_0_L1I_writeback_miss 0
Core_0_L1I_prefetch_requested 0
Core_0_L1I_prefetch_issued 0
Core_0_L1I_prefetch_useful 0
Core_0_L1I_prefetch_useless 0
Core_0_L1I_prefetch_late 0
Core_0_L1I_average_miss_latency 219.63636

Core_0_L2C_total_access 3075734
Core_0_L2C_total_hit 1196113
Core_0_L2C_total_miss 1879621
Core_0_L2C_loads 2395447
Core_0_L2C_load_hit 515964
Core_0_L2C_load_miss 1879483
Core_0_L2C_RFOs 25
Core_0_L2C_RFO_hit 0
Core_0_L2C_RFO_miss 25
Core_0_L2C_prefetches 0
Core_0_L2C_prefetch_hit 0
Core_0_L2C_prefetch_miss 0
Core_0_L2C_writebacks 680262
Core_0_L2C_writeback_hit 680149
Core_0_L2C_writeback_miss 113
Core_0_L2C_prefetch_requested 0
Core_0_L2C_prefetch_issued 0
Core_0_L2C_prefetch_useful 0
Core_0_L2C_prefetch_useless 0
Core_0_L2C_prefetch_late 0
Core_0_L2C_average_miss_latency 270.21632

Core_0_LLC_total_access 2554810
Core_0_LLC_total_hit 660267
Core_0_LLC_total_miss 1894543
Core_0_LLC_loads 1879483
Core_0_LLC_load_hit 264
Core_0_LLC_load_miss 1879219
Core_0_LLC_RFOs 25
Core_0_LLC_RFO_hit 1
Core_0_LLC_RFO_miss 24
Core_0_LLC_prefetches 0
Core_0_LLC_prefetch_hit 0
Core_0_LLC_prefetch_miss 0
Core_0_LLC_writebacks 675302
Core_0_LLC_writeback_hit 660002
Core_0_LLC_writeback_miss 15300
Core_0_LLC_prefetch_requested 0
Core_0_LLC_prefetch_issued 0
Core_0_LLC_prefetch_useful 0
Core_0_LLC_prefetch_useless 0
Core_0_LLC_prefetch_late 0
Core_0_LLC_average_miss_latency 238.19283

Core_0_major_page_fault 0
Core_0_minor_page_fault 80857

Channel_0_RQ_row_buffer_hit 357223
Channel_0_RQ_row_buffer_miss 1522020
Channel_0_WQ_row_buffer_hit 482983
Channel_0_WQ_row_buffer_miss 174650
Channel_0_WQ_full 0
Channel_0_dbus_congested 704794

avg_congested_cycle 10
