*************************************************
   ChampSim Multicore Out-of-Order Simulator
   Last compiled: Dec 25 2023 17:32:49
*************************************************

trace_0 ./test_trace/459.GemsFDTD-1320B.champsimtrace.xz
CPU 0 L2C next line prefetcher
Initialize DRRIP state
Assign rand_sets[0]: 454  LLC: 2048
rand_sets[0]: 454
Assign rand_sets[1]: 1662  LLC: 2048
rand_sets[1]: 1662
Assign rand_sets[2]: 1921  LLC: 2048
rand_sets[2]: 1921
Assign rand_sets[3]: 1131  LLC: 2048
rand_sets[3]: 1131
Assign rand_sets[4]: 331  LLC: 2048
rand_sets[4]: 331
Assign rand_sets[5]: 1531  LLC: 2048
rand_sets[5]: 1531
Assign rand_sets[6]: 482  LLC: 2048
rand_sets[6]: 482
Assign rand_sets[7]: 1275  LLC: 2048
rand_sets[7]: 1275
Assign rand_sets[8]: 1876  LLC: 2048
rand_sets[8]: 1876
Assign rand_sets[9]: 2038  LLC: 2048
rand_sets[9]: 2038
Assign rand_sets[10]: 701  LLC: 2048
rand_sets[10]: 701
Assign rand_sets[11]: 479  LLC: 2048
rand_sets[11]: 479
Assign rand_sets[12]: 892  LLC: 2048
rand_sets[12]: 892
Assign rand_sets[13]: 1820  LLC: 2048
rand_sets[13]: 1820
Assign rand_sets[14]: 1505  LLC: 2048
rand_sets[14]: 1505
Assign rand_sets[15]: 1159  LLC: 2048
rand_sets[15]: 1159
Assign rand_sets[16]: 513  LLC: 2048
rand_sets[16]: 513
Assign rand_sets[17]: 703  LLC: 2048
rand_sets[17]: 703
Assign rand_sets[18]: 561  LLC: 2048
rand_sets[18]: 561
Assign rand_sets[19]: 990  LLC: 2048
rand_sets[19]: 990
Assign rand_sets[20]: 342  LLC: 2048
rand_sets[20]: 342
Assign rand_sets[21]: 882  LLC: 2048
rand_sets[21]: 882
Assign rand_sets[22]: 15  LLC: 2048
rand_sets[22]: 15
Assign rand_sets[23]: 71  LLC: 2048
rand_sets[23]: 71
Assign rand_sets[24]: 1127  LLC: 2048
rand_sets[24]: 1127
Assign rand_sets[25]: 1382  LLC: 2048
rand_sets[25]: 1382
Assign rand_sets[26]: 647  LLC: 2048
rand_sets[26]: 647
Assign rand_sets[27]: 857  LLC: 2048
rand_sets[27]: 857
Assign rand_sets[28]: 1450  LLC: 2048
rand_sets[28]: 1450
Assign rand_sets[29]: 1160  LLC: 2048
rand_sets[29]: 1160
Assign rand_sets[30]: 1852  LLC: 2048
rand_sets[30]: 1852
Assign rand_sets[31]: 1881  LLC: 2048
rand_sets[31]: 1881
Assign rand_sets[32]: 1770  LLC: 2048
rand_sets[32]: 1770
Assign rand_sets[33]: 1622  LLC: 2048
rand_sets[33]: 1622
Assign rand_sets[34]: 275  LLC: 2048
rand_sets[34]: 275
Assign rand_sets[35]: 635  LLC: 2048
rand_sets[35]: 635
Assign rand_sets[36]: 466  LLC: 2048
rand_sets[36]: 466
Assign rand_sets[37]: 1413  LLC: 2048
rand_sets[37]: 1413
Assign rand_sets[38]: 417  LLC: 2048
rand_sets[38]: 417
Assign rand_sets[39]: 472  LLC: 2048
rand_sets[39]: 472
Assign rand_sets[40]: 1340  LLC: 2048
rand_sets[40]: 1340
Assign rand_sets[41]: 852  LLC: 2048
rand_sets[41]: 852
Assign rand_sets[42]: 1365  LLC: 2048
rand_sets[42]: 1365
Assign rand_sets[43]: 47  LLC: 2048
rand_sets[43]: 47
Assign rand_sets[44]: 823  LLC: 2048
rand_sets[44]: 823
Assign rand_sets[45]: 686  LLC: 2048
rand_sets[45]: 686
Assign rand_sets[46]: 1637  LLC: 2048
rand_sets[46]: 1637
Assign rand_sets[47]: 1115  LLC: 2048
rand_sets[47]: 1115
Assign rand_sets[48]: 986  LLC: 2048
rand_sets[48]: 986
Assign rand_sets[49]: 258  LLC: 2048
rand_sets[49]: 258
Assign rand_sets[50]: 633  LLC: 2048
rand_sets[50]: 633
Assign rand_sets[51]: 920  LLC: 2048
rand_sets[51]: 920
Assign rand_sets[52]: 204  LLC: 2048
rand_sets[52]: 204
Assign rand_sets[53]: 227  LLC: 2048
rand_sets[53]: 227
Assign rand_sets[54]: 1818  LLC: 2048
rand_sets[54]: 1818
Assign rand_sets[55]: 886  LLC: 2048
rand_sets[55]: 886
Assign rand_sets[56]: 1422  LLC: 2048
rand_sets[56]: 1422
Assign rand_sets[57]: 607  LLC: 2048
rand_sets[57]: 607
Assign rand_sets[58]: 217  LLC: 2048
rand_sets[58]: 217
Assign rand_sets[59]: 1945  LLC: 2048
rand_sets[59]: 1945
Assign rand_sets[60]: 143  LLC: 2048
rand_sets[60]: 143
Assign rand_sets[61]: 1311  LLC: 2048
rand_sets[61]: 1311
Assign rand_sets[62]: 319  LLC: 2048
rand_sets[62]: 319
Assign rand_sets[63]: 1846  LLC: 2048
rand_sets[63]: 1846
warmup_instructions 100000000
simulation_instructions 100000000
champsim_seed 264

num_cpus 1
cpu_freq 4000
dram_io_freq 2400
page_size 4096
block_size 64
max_read_per_cycle 8
max_fill_per_cycle 1
dram_channels 1
dram_ranks 1
dram_banks 8
dram_rows 65536
dram_columns 128
dram_row_size 8
dram_size 4096
dram_pages 1048576

fetch_width 6
decode_width 6
exec_width 4
lq_width 2
sq_width 2
retire_width 4
scheduler_size 128
branch_mispredict_penalty 20
rob_size 256
lq_size 72
sq_size 56
num_instr_destinations_sparc 4
num_instr_destinations 2
num_instr_sources 4

itlb_set 16
itlb_way 8
itlb_rq_size 16
itlb_wq_size 16
itlb_pq_size 0
itlb_mshr_size 8
itlb_latency 1

dtlb_set 16
dtlb_way 4
dtlb_rq_size 16
dtlb_wq_size 16
dtlb_pq_size 0
dtlb_mshr_size 8
dtlb_latency 1

stlb_set 128
stlb_way 12
stlb_rq_size 32
stlb_wq_size 32
stlb_pq_size 0
stlb_mshr_size 16
stlb_latency 8

l1i_size 32
l1i_set 64
l1i_way 8
l1i_rq_size 64
l1i_wq_size 64
l1i_pq_size 8
l1i_mshr_size 8
l1i_latency 1

l1d_size 32
l1d_set 64
l1d_way 8
l1d_rq_size 64
l1d_wq_size 64
l1d_pq_size 8
l1d_mshr_size 16
l1d_latency 4

l2c_size 512
l2c_set 1024
l2c_way 8
l2c_rq_size 32
l2c_wq_size 32
l2c_pq_size 16
l2c_mshr_size 32
l2c_latency 10

llc_size 2048
llc_set 2048
llc_way 16
llc_rq_size 32
llc_wq_size 32
llc_pq_size 32
llc_mshr_size 64
llc_latency 20

dram_channel_width 8
dram_wq_size 64
dram_rq_size 64
tRP 15
tRCD 15
tCAS 12.5
dram_dbus_turn_around_time 30
dram_write_high_wm 56
dram_write_low_wm 48
min_dram_writes_per_switch 16
dram_mtps 2400
dram_dbus_return_time 13


Heartbeat CPU  0 instructions:    1000000 cycles:     673477 heartbeat IPC: 1.48483 cumulative IPC: 1.48483 (Simulation time: 0 hr 0 min 1 sec) 
Heartbeat CPU  0 instructions:    2000003 cycles:    1346185 heartbeat IPC: 1.48653 cumulative IPC: 1.48568 (Simulation time: 0 hr 0 min 3 sec) 
Heartbeat CPU  0 instructions:    3000002 cycles:    2018935 heartbeat IPC: 1.48643 cumulative IPC: 1.48593 (Simulation time: 0 hr 0 min 5 sec) 
Heartbeat CPU  0 instructions:    4000000 cycles:    2691655 heartbeat IPC: 1.48650 cumulative IPC: 1.48607 (Simulation time: 0 hr 0 min 7 sec) 
Heartbeat CPU  0 instructions:    5000001 cycles:    3364490 heartbeat IPC: 1.48625 cumulative IPC: 1.48611 (Simulation time: 0 hr 0 min 9 sec) 
Heartbeat CPU  0 instructions:    6000001 cycles:    4036851 heartbeat IPC: 1.48730 cumulative IPC: 1.48631 (Simulation time: 0 hr 0 min 10 sec) 
Heartbeat CPU  0 instructions:    7000001 cycles:    4709370 heartbeat IPC: 1.48695 cumulative IPC: 1.48640 (Simulation time: 0 hr 0 min 12 sec) 
Heartbeat CPU  0 instructions:    8000000 cycles:    5381979 heartbeat IPC: 1.48675 cumulative IPC: 1.48644 (Simulation time: 0 hr 0 min 14 sec) 
Heartbeat CPU  0 instructions:    9000003 cycles:    6054589 heartbeat IPC: 1.48675 cumulative IPC: 1.48648 (Simulation time: 0 hr 0 min 16 sec) 
Heartbeat CPU  0 instructions:   10000001 cycles:    6727362 heartbeat IPC: 1.48638 cumulative IPC: 1.48647 (Simulation time: 0 hr 0 min 18 sec) 
Heartbeat CPU  0 instructions:   11000003 cycles:    7399928 heartbeat IPC: 1.48685 cumulative IPC: 1.48650 (Simulation time: 0 hr 0 min 19 sec) 
Heartbeat CPU  0 instructions:   12000000 cycles:    8072521 heartbeat IPC: 1.48678 cumulative IPC: 1.48652 (Simulation time: 0 hr 0 min 21 sec) 
Heartbeat CPU  0 instructions:   13000000 cycles:    8750166 heartbeat IPC: 1.47570 cumulative IPC: 1.48569 (Simulation time: 0 hr 0 min 23 sec) 
Heartbeat CPU  0 instructions:   14000002 cycles:    9429143 heartbeat IPC: 1.47281 cumulative IPC: 1.48476 (Simulation time: 0 hr 0 min 24 sec) 
Heartbeat CPU  0 instructions:   15000000 cycles:   10108279 heartbeat IPC: 1.47246 cumulative IPC: 1.48393 (Simulation time: 0 hr 0 min 26 sec) 
Heartbeat CPU  0 instructions:   16000000 cycles:   10787305 heartbeat IPC: 1.47270 cumulative IPC: 1.48322 (Simulation time: 0 hr 0 min 28 sec) 
Heartbeat CPU  0 instructions:   17000002 cycles:   11466469 heartbeat IPC: 1.47240 cumulative IPC: 1.48258 (Simulation time: 0 hr 0 min 30 sec) 
Heartbeat CPU  0 instructions:   18000003 cycles:   12145552 heartbeat IPC: 1.47258 cumulative IPC: 1.48202 (Simulation time: 0 hr 0 min 31 sec) 
Heartbeat CPU  0 instructions:   19000003 cycles:   12824552 heartbeat IPC: 1.47275 cumulative IPC: 1.48153 (Simulation time: 0 hr 0 min 33 sec) 
Heartbeat CPU  0 instructions:   20000000 cycles:   13503661 heartbeat IPC: 1.47251 cumulative IPC: 1.48108 (Simulation time: 0 hr 0 min 35 sec) 
Heartbeat CPU  0 instructions:   21000002 cycles:   14182751 heartbeat IPC: 1.47256 cumulative IPC: 1.48067 (Simulation time: 0 hr 0 min 36 sec) 
Heartbeat CPU  0 instructions:   22000000 cycles:   14861822 heartbeat IPC: 1.47260 cumulative IPC: 1.48030 (Simulation time: 0 hr 0 min 38 sec) 
Heartbeat CPU  0 instructions:   23000000 cycles:   15540886 heartbeat IPC: 1.47262 cumulative IPC: 1.47997 (Simulation time: 0 hr 0 min 40 sec) 
Heartbeat CPU  0 instructions:   24000000 cycles:   16219914 heartbeat IPC: 1.47269 cumulative IPC: 1.47966 (Simulation time: 0 hr 0 min 41 sec) 
Heartbeat CPU  0 instructions:   25000001 cycles:   16899066 heartbeat IPC: 1.47243 cumulative IPC: 1.47937 (Simulation time: 0 hr 0 min 43 sec) 
Heartbeat CPU  0 instructions:   26000001 cycles:   17578123 heartbeat IPC: 1.47263 cumulative IPC: 1.47911 (Simulation time: 0 hr 0 min 45 sec) 
Heartbeat CPU  0 instructions:   27000001 cycles:   18257093 heartbeat IPC: 1.47282 cumulative IPC: 1.47888 (Simulation time: 0 hr 0 min 47 sec) 
Heartbeat CPU  0 instructions:   28000000 cycles:   18935465 heartbeat IPC: 1.47412 cumulative IPC: 1.47871 (Simulation time: 0 hr 0 min 48 sec) 
Heartbeat CPU  0 instructions:   29000002 cycles:   19612160 heartbeat IPC: 1.47777 cumulative IPC: 1.47867 (Simulation time: 0 hr 0 min 50 sec) 
Heartbeat CPU  0 instructions:   30000000 cycles:   20288846 heartbeat IPC: 1.47779 cumulative IPC: 1.47864 (Simulation time: 0 hr 0 min 52 sec) 
Heartbeat CPU  0 instructions:   31000000 cycles:   20965430 heartbeat IPC: 1.47801 cumulative IPC: 1.47862 (Simulation time: 0 hr 0 min 53 sec) 
Heartbeat CPU  0 instructions:   32000000 cycles:   21642026 heartbeat IPC: 1.47799 cumulative IPC: 1.47860 (Simulation time: 0 hr 0 min 55 sec) 
Heartbeat CPU  0 instructions:   33000002 cycles:   22318863 heartbeat IPC: 1.47746 cumulative IPC: 1.47857 (Simulation time: 0 hr 0 min 57 sec) 
Heartbeat CPU  0 instructions:   34000000 cycles:   22995526 heartbeat IPC: 1.47784 cumulative IPC: 1.47855 (Simulation time: 0 hr 0 min 58 sec) 
Heartbeat CPU  0 instructions:   35000002 cycles:   23672232 heartbeat IPC: 1.47775 cumulative IPC: 1.47853 (Simulation time: 0 hr 1 min 0 sec) 
Heartbeat CPU  0 instructions:   36000000 cycles:   24348851 heartbeat IPC: 1.47793 cumulative IPC: 1.47851 (Simulation time: 0 hr 1 min 2 sec) 
Heartbeat CPU  0 instructions:   37000000 cycles:   25025672 heartbeat IPC: 1.47750 cumulative IPC: 1.47848 (Simulation time: 0 hr 1 min 4 sec) 
Heartbeat CPU  0 instructions:   38000000 cycles:   25702353 heartbeat IPC: 1.47780 cumulative IPC: 1.47846 (Simulation time: 0 hr 1 min 5 sec) 
Heartbeat CPU  0 instructions:   39000002 cycles:   26379121 heartbeat IPC: 1.47761 cumulative IPC: 1.47844 (Simulation time: 0 hr 1 min 7 sec) 
Heartbeat CPU  0 instructions:   40000000 cycles:   27055984 heartbeat IPC: 1.47740 cumulative IPC: 1.47842 (Simulation time: 0 hr 1 min 9 sec) 
Heartbeat CPU  0 instructions:   41000000 cycles:   27732877 heartbeat IPC: 1.47734 cumulative IPC: 1.47839 (Simulation time: 0 hr 1 min 10 sec) 
Heartbeat CPU  0 instructions:   42000002 cycles:   28409564 heartbeat IPC: 1.47779 cumulative IPC: 1.47838 (Simulation time: 0 hr 1 min 12 sec) 
Heartbeat CPU  0 instructions:   43000002 cycles:   29086252 heartbeat IPC: 1.47779 cumulative IPC: 1.47836 (Simulation time: 0 hr 1 min 14 sec) 
Heartbeat CPU  0 instructions:   44000000 cycles:   29752588 heartbeat IPC: 1.50074 cumulative IPC: 1.47886 (Simulation time: 0 hr 1 min 15 sec) 
Heartbeat CPU  0 instructions:   45000003 cycles:   30418828 heartbeat IPC: 1.50097 cumulative IPC: 1.47935 (Simulation time: 0 hr 1 min 17 sec) 
Heartbeat CPU  0 instructions:   46000001 cycles:   31084907 heartbeat IPC: 1.50132 cumulative IPC: 1.47982 (Simulation time: 0 hr 1 min 19 sec) 
Heartbeat CPU  0 instructions:   47000000 cycles:   31750972 heartbeat IPC: 1.50135 cumulative IPC: 1.48027 (Simulation time: 0 hr 1 min 21 sec) 
Heartbeat CPU  0 instructions:   48000000 cycles:   32416792 heartbeat IPC: 1.50191 cumulative IPC: 1.48071 (Simulation time: 0 hr 1 min 22 sec) 
Heartbeat CPU  0 instructions:   49000000 cycles:   33082773 heartbeat IPC: 1.50154 cumulative IPC: 1.48113 (Simulation time: 0 hr 1 min 24 sec) 
Heartbeat CPU  0 instructions:   50000003 cycles:   33749048 heartbeat IPC: 1.50089 cumulative IPC: 1.48152 (Simulation time: 0 hr 1 min 26 sec) 
Heartbeat CPU  0 instructions:   51000003 cycles:   34415028 heartbeat IPC: 1.50155 cumulative IPC: 1.48191 (Simulation time: 0 hr 1 min 28 sec) 
Heartbeat CPU  0 instructions:   52000000 cycles:   35081154 heartbeat IPC: 1.50121 cumulative IPC: 1.48228 (Simulation time: 0 hr 1 min 29 sec) 
Heartbeat CPU  0 instructions:   53000003 cycles:   35747131 heartbeat IPC: 1.50156 cumulative IPC: 1.48264 (Simulation time: 0 hr 1 min 31 sec) 
Heartbeat CPU  0 instructions:   54000000 cycles:   36412950 heartbeat IPC: 1.50191 cumulative IPC: 1.48299 (Simulation time: 0 hr 1 min 33 sec) 
Heartbeat CPU  0 instructions:   55000000 cycles:   37079092 heartbeat IPC: 1.50118 cumulative IPC: 1.48332 (Simulation time: 0 hr 1 min 35 sec) 
Heartbeat CPU  0 instructions:   56000000 cycles:   37740671 heartbeat IPC: 1.51154 cumulative IPC: 1.48381 (Simulation time: 0 hr 1 min 36 sec) 
Heartbeat CPU  0 instructions:   57000003 cycles:   38401561 heartbeat IPC: 1.51312 cumulative IPC: 1.48431 (Simulation time: 0 hr 1 min 38 sec) 
Heartbeat CPU  0 instructions:   58000000 cycles:   39062743 heartbeat IPC: 1.51244 cumulative IPC: 1.48479 (Simulation time: 0 hr 1 min 40 sec) 
Heartbeat CPU  0 instructions:   59000000 cycles:   39723762 heartbeat IPC: 1.51282 cumulative IPC: 1.48526 (Simulation time: 0 hr 1 min 41 sec) 
Heartbeat CPU  0 instructions:   60000000 cycles:   40384736 heartbeat IPC: 1.51292 cumulative IPC: 1.48571 (Simulation time: 0 hr 1 min 43 sec) 
Heartbeat CPU  0 instructions:   61000001 cycles:   41046222 heartbeat IPC: 1.51175 cumulative IPC: 1.48613 (Simulation time: 0 hr 1 min 45 sec) 
Heartbeat CPU  0 instructions:   62000000 cycles:   41707492 heartbeat IPC: 1.51224 cumulative IPC: 1.48654 (Simulation time: 0 hr 1 min 47 sec) 
Heartbeat CPU  0 instructions:   63000001 cycles:   42368569 heartbeat IPC: 1.51268 cumulative IPC: 1.48695 (Simulation time: 0 hr 1 min 48 sec) 
Heartbeat CPU  0 instructions:   64000000 cycles:   43029636 heartbeat IPC: 1.51270 cumulative IPC: 1.48735 (Simulation time: 0 hr 1 min 50 sec) 
Heartbeat CPU  0 instructions:   65000003 cycles:   43690633 heartbeat IPC: 1.51287 cumulative IPC: 1.48773 (Simulation time: 0 hr 1 min 52 sec) 
Heartbeat CPU  0 instructions:   66000000 cycles:   44351548 heartbeat IPC: 1.51305 cumulative IPC: 1.48811 (Simulation time: 0 hr 1 min 54 sec) 
Heartbeat CPU  0 instructions:   67000000 cycles:   45012923 heartbeat IPC: 1.51200 cumulative IPC: 1.48846 (Simulation time: 0 hr 1 min 55 sec) 
Heartbeat CPU  0 instructions:   68000000 cycles:   45683024 heartbeat IPC: 1.49231 cumulative IPC: 1.48852 (Simulation time: 0 hr 1 min 57 sec) 
Heartbeat CPU  0 instructions:   69000002 cycles:   46353647 heartbeat IPC: 1.49115 cumulative IPC: 1.48856 (Simulation time: 0 hr 1 min 59 sec) 
Heartbeat CPU  0 instructions:   70000001 cycles:   47024582 heartbeat IPC: 1.49046 cumulative IPC: 1.48858 (Simulation time: 0 hr 2 min 0 sec) 
Heartbeat CPU  0 instructions:   71000002 cycles:   47695198 heartbeat IPC: 1.49117 cumulative IPC: 1.48862 (Simulation time: 0 hr 2 min 2 sec) 
Heartbeat CPU  0 instructions:   72000000 cycles:   48366051 heartbeat IPC: 1.49064 cumulative IPC: 1.48865 (Simulation time: 0 hr 2 min 4 sec) 
Heartbeat CPU  0 instructions:   73000000 cycles:   49036801 heartbeat IPC: 1.49087 cumulative IPC: 1.48868 (Simulation time: 0 hr 2 min 6 sec) 
Heartbeat CPU  0 instructions:   74000000 cycles:   49707364 heartbeat IPC: 1.49128 cumulative IPC: 1.48871 (Simulation time: 0 hr 2 min 7 sec) 
Heartbeat CPU  0 instructions:   75000001 cycles:   50378406 heartbeat IPC: 1.49022 cumulative IPC: 1.48873 (Simulation time: 0 hr 2 min 9 sec) 
Heartbeat CPU  0 instructions:   76000000 cycles:   51048899 heartbeat IPC: 1.49144 cumulative IPC: 1.48877 (Simulation time: 0 hr 2 min 11 sec) 
Heartbeat CPU  0 instructions:   77000000 cycles:   51719972 heartbeat IPC: 1.49015 cumulative IPC: 1.48879 (Simulation time: 0 hr 2 min 12 sec) 
Heartbeat CPU  0 instructions:   78000003 cycles:   52390755 heartbeat IPC: 1.49080 cumulative IPC: 1.48881 (Simulation time: 0 hr 2 min 14 sec) 
Heartbeat CPU  0 instructions:   79000002 cycles:   53061307 heartbeat IPC: 1.49131 cumulative IPC: 1.48884 (Simulation time: 0 hr 2 min 16 sec) 
Heartbeat CPU  0 instructions:   80000000 cycles:   53733977 heartbeat IPC: 1.48661 cumulative IPC: 1.48882 (Simulation time: 0 hr 2 min 18 sec) 
Heartbeat CPU  0 instructions:   81000003 cycles:   54407386 heartbeat IPC: 1.48499 cumulative IPC: 1.48877 (Simulation time: 0 hr 2 min 19 sec) 
Heartbeat CPU  0 instructions:   82000001 cycles:   55080333 heartbeat IPC: 1.48600 cumulative IPC: 1.48873 (Simulation time: 0 hr 2 min 21 sec) 
Heartbeat CPU  0 instructions:   83000002 cycles:   55753360 heartbeat IPC: 1.48583 cumulative IPC: 1.48870 (Simulation time: 0 hr 2 min 23 sec) 
Heartbeat CPU  0 instructions:   84000000 cycles:   56425990 heartbeat IPC: 1.48670 cumulative IPC: 1.48868 (Simulation time: 0 hr 2 min 24 sec) 
Heartbeat CPU  0 instructions:   85000000 cycles:   57098920 heartbeat IPC: 1.48604 cumulative IPC: 1.48864 (Simulation time: 0 hr 2 min 26 sec) 
Heartbeat CPU  0 instructions:   86000001 cycles:   57771851 heartbeat IPC: 1.48604 cumulative IPC: 1.48861 (Simulation time: 0 hr 2 min 28 sec) 
Heartbeat CPU  0 instructions:   87000000 cycles:   58444867 heartbeat IPC: 1.48585 cumulative IPC: 1.48858 (Simulation time: 0 hr 2 min 30 sec) 
Heartbeat CPU  0 instructions:   88000000 cycles:   59117991 heartbeat IPC: 1.48561 cumulative IPC: 1.48855 (Simulation time: 0 hr 2 min 31 sec) 
Heartbeat CPU  0 instructions:   89000002 cycles:   59790918 heartbeat IPC: 1.48605 cumulative IPC: 1.48852 (Simulation time: 0 hr 2 min 33 sec) 
Heartbeat CPU  0 instructions:   90000001 cycles:   60463832 heartbeat IPC: 1.48607 cumulative IPC: 1.48849 (Simulation time: 0 hr 2 min 35 sec) 
Heartbeat CPU  0 instructions:   91000000 cycles:   61136612 heartbeat IPC: 1.48637 cumulative IPC: 1.48847 (Simulation time: 0 hr 2 min 37 sec) 
Heartbeat CPU  0 instructions:   92000000 cycles:   61812834 heartbeat IPC: 1.47880 cumulative IPC: 1.48836 (Simulation time: 0 hr 2 min 38 sec) 
Heartbeat CPU  0 instructions:   93000001 cycles:   62491853 heartbeat IPC: 1.47271 cumulative IPC: 1.48819 (Simulation time: 0 hr 2 min 40 sec) 
Heartbeat CPU  0 instructions:   94000001 cycles:   63170815 heartbeat IPC: 1.47284 cumulative IPC: 1.48803 (Simulation time: 0 hr 2 min 42 sec) 
Heartbeat CPU  0 instructions:   95000001 cycles:   63849802 heartbeat IPC: 1.47278 cumulative IPC: 1.48787 (Simulation time: 0 hr 2 min 43 sec) 
Heartbeat CPU  0 instructions:   96000000 cycles:   64528794 heartbeat IPC: 1.47277 cumulative IPC: 1.48771 (Simulation time: 0 hr 2 min 45 sec) 
Heartbeat CPU  0 instructions:   97000000 cycles:   65207834 heartbeat IPC: 1.47267 cumulative IPC: 1.48755 (Simulation time: 0 hr 2 min 47 sec) 
Heartbeat CPU  0 instructions:   98000000 cycles:   65886862 heartbeat IPC: 1.47269 cumulative IPC: 1.48740 (Simulation time: 0 hr 2 min 49 sec) 
Heartbeat CPU  0 instructions:   99000000 cycles:   66565859 heartbeat IPC: 1.47276 cumulative IPC: 1.48725 (Simulation time: 0 hr 2 min 50 sec) 
Heartbeat CPU  0 instructions:  100000000 cycles:   67244845 heartbeat IPC: 1.47278 cumulative IPC: 1.48710 (Simulation time: 0 hr 2 min 52 sec) 

Warmup complete CPU  0 instructions:  100000001 cycles:   67244846 (Simulation time: 0 hr 2 min 52 sec) 

Heartbeat CPU  0 instructions:  101000000 cycles:   68378883 heartbeat IPC: 0.88180 cumulative IPC: 0.88180 (Simulation time: 0 hr 2 min 54 sec) 
Heartbeat CPU  0 instructions:  102000002 cycles:   69513143 heartbeat IPC: 0.88163 cumulative IPC: 0.88172 (Simulation time: 0 hr 2 min 56 sec) 
Heartbeat CPU  0 instructions:  103000001 cycles:   70648462 heartbeat IPC: 0.88081 cumulative IPC: 0.88142 (Simulation time: 0 hr 2 min 58 sec) 
Heartbeat CPU  0 instructions:  104000000 cycles:   71781390 heartbeat IPC: 0.88267 cumulative IPC: 0.88173 (Simulation time: 0 hr 3 min 0 sec) 
Heartbeat CPU  0 instructions:  105000001 cycles:   72915430 heartbeat IPC: 0.88180 cumulative IPC: 0.88174 (Simulation time: 0 hr 3 min 2 sec) 
Heartbeat CPU  0 instructions:  106000001 cycles:   74048971 heartbeat IPC: 0.88219 cumulative IPC: 0.88182 (Simulation time: 0 hr 3 min 4 sec) 
Heartbeat CPU  0 instructions:  107000002 cycles:   75401615 heartbeat IPC: 0.73929 cumulative IPC: 0.85818 (Simulation time: 0 hr 3 min 6 sec) 
Heartbeat CPU  0 instructions:  108000000 cycles:   76579397 heartbeat IPC: 0.84905 cumulative IPC: 0.85703 (Simulation time: 0 hr 3 min 8 sec) 
Heartbeat CPU  0 instructions:  109000000 cycles:   77766990 heartbeat IPC: 0.84204 cumulative IPC: 0.85534 (Simulation time: 0 hr 3 min 10 sec) 
Heartbeat CPU  0 instructions:  110000002 cycles:   78957598 heartbeat IPC: 0.83991 cumulative IPC: 0.85377 (Simulation time: 0 hr 3 min 12 sec) 
Heartbeat CPU  0 instructions:  111000000 cycles:   80142003 heartbeat IPC: 0.84430 cumulative IPC: 0.85290 (Simulation time: 0 hr 3 min 14 sec) 
Heartbeat CPU  0 instructions:  112000000 cycles:   81320683 heartbeat IPC: 0.84841 cumulative IPC: 0.85252 (Simulation time: 0 hr 3 min 16 sec) 
Heartbeat CPU  0 instructions:  113000000 cycles:   82509805 heartbeat IPC: 0.84096 cumulative IPC: 0.85162 (Simulation time: 0 hr 3 min 18 sec) 
Heartbeat CPU  0 instructions:  114000002 cycles:   83705766 heartbeat IPC: 0.83615 cumulative IPC: 0.85050 (Simulation time: 0 hr 3 min 20 sec) 
Heartbeat CPU  0 instructions:  115000002 cycles:   84893879 heartbeat IPC: 0.84167 cumulative IPC: 0.84990 (Simulation time: 0 hr 3 min 22 sec) 
Heartbeat CPU  0 instructions:  116000000 cycles:   86080427 heartbeat IPC: 0.84278 cumulative IPC: 0.84946 (Simulation time: 0 hr 3 min 23 sec) 
Heartbeat CPU  0 instructions:  117000002 cycles:   87267961 heartbeat IPC: 0.84208 cumulative IPC: 0.84902 (Simulation time: 0 hr 3 min 25 sec) 
Heartbeat CPU  0 instructions:  118000000 cycles:   88457628 heartbeat IPC: 0.84057 cumulative IPC: 0.84854 (Simulation time: 0 hr 3 min 27 sec) 
Heartbeat CPU  0 instructions:  119000000 cycles:   89639977 heartbeat IPC: 0.84577 cumulative IPC: 0.84840 (Simulation time: 0 hr 3 min 29 sec) 
Heartbeat CPU  0 instructions:  120000000 cycles:   90817330 heartbeat IPC: 0.84936 cumulative IPC: 0.84845 (Simulation time: 0 hr 3 min 31 sec) 
Heartbeat CPU  0 instructions:  121000002 cycles:   91998427 heartbeat IPC: 0.84667 cumulative IPC: 0.84836 (Simulation time: 0 hr 3 min 33 sec) 
Heartbeat CPU  0 instructions:  122000002 cycles:   93173259 heartbeat IPC: 0.85119 cumulative IPC: 0.84849 (Simulation time: 0 hr 3 min 35 sec) 
Heartbeat CPU  0 instructions:  123000003 cycles:   94105835 heartbeat IPC: 1.07230 cumulative IPC: 0.85626 (Simulation time: 0 hr 3 min 37 sec) 
Heartbeat CPU  0 instructions:  124000000 cycles:   95172882 heartbeat IPC: 0.93716 cumulative IPC: 0.85935 (Simulation time: 0 hr 3 min 38 sec) 
Heartbeat CPU  0 instructions:  125000000 cycles:   96479007 heartbeat IPC: 0.76562 cumulative IPC: 0.85516 (Simulation time: 0 hr 3 min 40 sec) 
Heartbeat CPU  0 instructions:  126000001 cycles:   97710092 heartbeat IPC: 0.81229 cumulative IPC: 0.85343 (Simulation time: 0 hr 3 min 42 sec) 
Heartbeat CPU  0 instructions:  127000001 cycles:   99051427 heartbeat IPC: 0.74553 cumulative IPC: 0.84888 (Simulation time: 0 hr 3 min 43 sec) 
Heartbeat CPU  0 instructions:  128000000 cycles:  100365194 heartbeat IPC: 0.76117 cumulative IPC: 0.84540 (Simulation time: 0 hr 3 min 45 sec) 
Heartbeat CPU  0 instructions:  129000003 cycles:  101692429 heartbeat IPC: 0.75345 cumulative IPC: 0.84186 (Simulation time: 0 hr 3 min 47 sec) 
Heartbeat CPU  0 instructions:  130000002 cycles:  103000200 heartbeat IPC: 0.76466 cumulative IPC: 0.83904 (Simulation time: 0 hr 3 min 49 sec) 
Heartbeat CPU  0 instructions:  131000000 cycles:  104286605 heartbeat IPC: 0.77736 cumulative IPC: 0.83689 (Simulation time: 0 hr 3 min 50 sec) 
Heartbeat CPU  0 instructions:  132000000 cycles:  105605067 heartbeat IPC: 0.75846 cumulative IPC: 0.83420 (Simulation time: 0 hr 3 min 52 sec) 
Heartbeat CPU  0 instructions:  133000000 cycles:  106919712 heartbeat IPC: 0.76066 cumulative IPC: 0.83176 (Simulation time: 0 hr 3 min 54 sec) 
Heartbeat CPU  0 instructions:  134000002 cycles:  108233541 heartbeat IPC: 0.76114 cumulative IPC: 0.82950 (Simulation time: 0 hr 3 min 56 sec) 
Heartbeat CPU  0 instructions:  135000001 cycles:  109537321 heartbeat IPC: 0.76700 cumulative IPC: 0.82757 (Simulation time: 0 hr 3 min 57 sec) 
Heartbeat CPU  0 instructions:  136000000 cycles:  110856851 heartbeat IPC: 0.75784 cumulative IPC: 0.82546 (Simulation time: 0 hr 3 min 59 sec) 
Heartbeat CPU  0 instructions:  137000002 cycles:  112159182 heartbeat IPC: 0.76786 cumulative IPC: 0.82379 (Simulation time: 0 hr 4 min 1 sec) 
Heartbeat CPU  0 instructions:  138000000 cycles:  113478196 heartbeat IPC: 0.75814 cumulative IPC: 0.82192 (Simulation time: 0 hr 4 min 2 sec) 
Heartbeat CPU  0 instructions:  139000000 cycles:  114795961 heartbeat IPC: 0.75886 cumulative IPC: 0.82017 (Simulation time: 0 hr 4 min 4 sec) 
Heartbeat CPU  0 instructions:  140000000 cycles:  116113897 heartbeat IPC: 0.75876 cumulative IPC: 0.81851 (Simulation time: 0 hr 4 min 6 sec) 
Heartbeat CPU  0 instructions:  141000000 cycles:  117413546 heartbeat IPC: 0.76944 cumulative IPC: 0.81724 (Simulation time: 0 hr 4 min 8 sec) 
Heartbeat CPU  0 instructions:  142000001 cycles:  118705307 heartbeat IPC: 0.77414 cumulative IPC: 0.81616 (Simulation time: 0 hr 4 min 9 sec) 
Heartbeat CPU  0 instructions:  143000002 cycles:  120012240 heartbeat IPC: 0.76515 cumulative IPC: 0.81490 (Simulation time: 0 hr 4 min 11 sec) 
Heartbeat CPU  0 instructions:  144000000 cycles:  121322410 heartbeat IPC: 0.76326 cumulative IPC: 0.81365 (Simulation time: 0 hr 4 min 13 sec) 
Heartbeat CPU  0 instructions:  145000002 cycles:  122628760 heartbeat IPC: 0.76549 cumulative IPC: 0.81251 (Simulation time: 0 hr 4 min 15 sec) 
Heartbeat CPU  0 instructions:  146000000 cycles:  123941268 heartbeat IPC: 0.76190 cumulative IPC: 0.81134 (Simulation time: 0 hr 4 min 16 sec) 
Heartbeat CPU  0 instructions:  147000003 cycles:  125259841 heartbeat IPC: 0.75840 cumulative IPC: 0.81014 (Simulation time: 0 hr 4 min 18 sec) 
Heartbeat CPU  0 instructions:  148000000 cycles:  126659980 heartbeat IPC: 0.71421 cumulative IPC: 0.80787 (Simulation time: 0 hr 4 min 20 sec) 
Heartbeat CPU  0 instructions:  149000000 cycles:  128317764 heartbeat IPC: 0.60321 cumulative IPC: 0.80232 (Simulation time: 0 hr 4 min 22 sec) 
Heartbeat CPU  0 instructions:  150000002 cycles:  129920419 heartbeat IPC: 0.62397 cumulative IPC: 0.79776 (Simulation time: 0 hr 4 min 23 sec) 
Heartbeat CPU  0 instructions:  151000001 cycles:  131570865 heartbeat IPC: 0.60590 cumulative IPC: 0.79284 (Simulation time: 0 hr 4 min 25 sec) 
Heartbeat CPU  0 instructions:  152000000 cycles:  133121866 heartbeat IPC: 0.64474 cumulative IPC: 0.78935 (Simulation time: 0 hr 4 min 27 sec) 
Heartbeat CPU  0 instructions:  153000002 cycles:  134786615 heartbeat IPC: 0.60069 cumulative IPC: 0.78470 (Simulation time: 0 hr 4 min 29 sec) 
Heartbeat CPU  0 instructions:  154000003 cycles:  136347242 heartbeat IPC: 0.64077 cumulative IPC: 0.78145 (Simulation time: 0 hr 4 min 31 sec) 
Heartbeat CPU  0 instructions:  155000000 cycles:  137968657 heartbeat IPC: 0.61674 cumulative IPC: 0.77767 (Simulation time: 0 hr 4 min 33 sec) 
Heartbeat CPU  0 instructions:  156000000 cycles:  139571115 heartbeat IPC: 0.62404 cumulative IPC: 0.77427 (Simulation time: 0 hr 4 min 35 sec) 
Heartbeat CPU  0 instructions:  157000001 cycles:  141238070 heartbeat IPC: 0.59990 cumulative IPC: 0.77034 (Simulation time: 0 hr 4 min 36 sec) 
Heartbeat CPU  0 instructions:  158000001 cycles:  142806201 heartbeat IPC: 0.63770 cumulative IPC: 0.76759 (Simulation time: 0 hr 4 min 38 sec) 
Heartbeat CPU  0 instructions:  159000002 cycles:  144480426 heartbeat IPC: 0.59729 cumulative IPC: 0.76390 (Simulation time: 0 hr 4 min 40 sec) 
Heartbeat CPU  0 instructions:  160000000 cycles:  146061207 heartbeat IPC: 0.63260 cumulative IPC: 0.76126 (Simulation time: 0 hr 4 min 42 sec) 
Heartbeat CPU  0 instructions:  161000002 cycles:  147736160 heartbeat IPC: 0.59703 cumulative IPC: 0.75785 (Simulation time: 0 hr 4 min 44 sec) 
Heartbeat CPU  0 instructions:  162000003 cycles:  149309362 heartbeat IPC: 0.63565 cumulative IPC: 0.75550 (Simulation time: 0 hr 4 min 46 sec) 
Heartbeat CPU  0 instructions:  163000003 cycles:  151002128 heartbeat IPC: 0.59075 cumulative IPC: 0.75217 (Simulation time: 0 hr 4 min 47 sec) 
Heartbeat CPU  0 instructions:  164000000 cycles:  152598076 heartbeat IPC: 0.62658 cumulative IPC: 0.74983 (Simulation time: 0 hr 4 min 49 sec) 
Heartbeat CPU  0 instructions:  165000000 cycles:  154252585 heartbeat IPC: 0.60441 cumulative IPC: 0.74706 (Simulation time: 0 hr 4 min 51 sec) 
Heartbeat CPU  0 instructions:  166000001 cycles:  155819132 heartbeat IPC: 0.63835 cumulative IPC: 0.74514 (Simulation time: 0 hr 4 min 53 sec) 
Heartbeat CPU  0 instructions:  167000001 cycles:  157510779 heartbeat IPC: 0.59114 cumulative IPC: 0.74225 (Simulation time: 0 hr 4 min 55 sec) 
Heartbeat CPU  0 instructions:  168000000 cycles:  159087942 heartbeat IPC: 0.63405 cumulative IPC: 0.74039 (Simulation time: 0 hr 4 min 57 sec) 
Heartbeat CPU  0 instructions:  169000002 cycles:  160732415 heartbeat IPC: 0.60810 cumulative IPC: 0.73807 (Simulation time: 0 hr 4 min 59 sec) 
Heartbeat CPU  0 instructions:  170000000 cycles:  162342385 heartbeat IPC: 0.62113 cumulative IPC: 0.73609 (Simulation time: 0 hr 5 min 0 sec) 
Heartbeat CPU  0 instructions:  171000000 cycles:  163937689 heartbeat IPC: 0.62684 cumulative IPC: 0.73428 (Simulation time: 0 hr 5 min 2 sec) 
Heartbeat CPU  0 instructions:  172000000 cycles:  165543720 heartbeat IPC: 0.62265 cumulative IPC: 0.73246 (Simulation time: 0 hr 5 min 4 sec) 
Heartbeat CPU  0 instructions:  173000001 cycles:  167155743 heartbeat IPC: 0.62034 cumulative IPC: 0.73065 (Simulation time: 0 hr 5 min 6 sec) 
Heartbeat CPU  0 instructions:  174000001 cycles:  168795013 heartbeat IPC: 0.61003 cumulative IPC: 0.72870 (Simulation time: 0 hr 5 min 8 sec) 
Heartbeat CPU  0 instructions:  175000002 cycles:  170350717 heartbeat IPC: 0.64280 cumulative IPC: 0.72741 (Simulation time: 0 hr 5 min 10 sec) 
Heartbeat CPU  0 instructions:  176000000 cycles:  172008165 heartbeat IPC: 0.60334 cumulative IPC: 0.72544 (Simulation time: 0 hr 5 min 12 sec) 
Heartbeat CPU  0 instructions:  177000003 cycles:  173566740 heartbeat IPC: 0.64161 cumulative IPC: 0.72422 (Simulation time: 0 hr 5 min 13 sec) 
Heartbeat CPU  0 instructions:  178000003 cycles:  175212884 heartbeat IPC: 0.60748 cumulative IPC: 0.72244 (Simulation time: 0 hr 5 min 15 sec) 
Heartbeat CPU  0 instructions:  179000001 cycles:  176780156 heartbeat IPC: 0.63805 cumulative IPC: 0.72123 (Simulation time: 0 hr 5 min 17 sec) 
Heartbeat CPU  0 instructions:  180000000 cycles:  178442222 heartbeat IPC: 0.60166 cumulative IPC: 0.71944 (Simulation time: 0 hr 5 min 19 sec) 
Heartbeat CPU  0 instructions:  181000001 cycles:  180058416 heartbeat IPC: 0.61874 cumulative IPC: 0.71800 (Simulation time: 0 hr 5 min 21 sec) 
Heartbeat CPU  0 instructions:  182000001 cycles:  181709358 heartbeat IPC: 0.60571 cumulative IPC: 0.71638 (Simulation time: 0 hr 5 min 23 sec) 
Heartbeat CPU  0 instructions:  183000002 cycles:  183260819 heartbeat IPC: 0.64455 cumulative IPC: 0.71542 (Simulation time: 0 hr 5 min 24 sec) 
Heartbeat CPU  0 instructions:  184000000 cycles:  184938025 heartbeat IPC: 0.59623 cumulative IPC: 0.71372 (Simulation time: 0 hr 5 min 26 sec) 
Heartbeat CPU  0 instructions:  185000003 cycles:  186516362 heartbeat IPC: 0.63358 cumulative IPC: 0.71266 (Simulation time: 0 hr 5 min 28 sec) 
Heartbeat CPU  0 instructions:  186000000 cycles:  188177599 heartbeat IPC: 0.60196 cumulative IPC: 0.71114 (Simulation time: 0 hr 5 min 30 sec) 
Heartbeat CPU  0 instructions:  187000000 cycles:  189771397 heartbeat IPC: 0.62743 cumulative IPC: 0.71005 (Simulation time: 0 hr 5 min 32 sec) 
Heartbeat CPU  0 instructions:  188000000 cycles:  191432772 heartbeat IPC: 0.60191 cumulative IPC: 0.70860 (Simulation time: 0 hr 5 min 34 sec) 
Heartbeat CPU  0 instructions:  189000001 cycles:  192988626 heartbeat IPC: 0.64273 cumulative IPC: 0.70779 (Simulation time: 0 hr 5 min 35 sec) 
Heartbeat CPU  0 instructions:  190000001 cycles:  194656055 heartbeat IPC: 0.59973 cumulative IPC: 0.70637 (Simulation time: 0 hr 5 min 37 sec) 
Heartbeat CPU  0 instructions:  191000002 cycles:  196276426 heartbeat IPC: 0.61714 cumulative IPC: 0.70525 (Simulation time: 0 hr 5 min 39 sec) 
Heartbeat CPU  0 instructions:  192000000 cycles:  197900917 heartbeat IPC: 0.61558 cumulative IPC: 0.70414 (Simulation time: 0 hr 5 min 41 sec) 
Heartbeat CPU  0 instructions:  193000003 cycles:  199489072 heartbeat IPC: 0.62966 cumulative IPC: 0.70324 (Simulation time: 0 hr 5 min 43 sec) 
Heartbeat CPU  0 instructions:  194000000 cycles:  201147262 heartbeat IPC: 0.60307 cumulative IPC: 0.70200 (Simulation time: 0 hr 5 min 45 sec) 
Heartbeat CPU  0 instructions:  195000000 cycles:  202734274 heartbeat IPC: 0.63011 cumulative IPC: 0.70116 (Simulation time: 0 hr 5 min 46 sec) 
Heartbeat CPU  0 instructions:  196000000 cycles:  204365227 heartbeat IPC: 0.61314 cumulative IPC: 0.70011 (Simulation time: 0 hr 5 min 48 sec) 
Heartbeat CPU  0 instructions:  197000002 cycles:  205957514 heartbeat IPC: 0.62803 cumulative IPC: 0.69929 (Simulation time: 0 hr 5 min 50 sec) 
Heartbeat CPU  0 instructions:  198000001 cycles:  207608724 heartbeat IPC: 0.60562 cumulative IPC: 0.69819 (Simulation time: 0 hr 5 min 52 sec) 
Heartbeat CPU  0 instructions:  199000002 cycles:  209180340 heartbeat IPC: 0.63629 cumulative IPC: 0.69750 (Simulation time: 0 hr 5 min 54 sec) 
Heartbeat CPU  0 instructions:  200000000 cycles:  210811962 heartbeat IPC: 0.61289 cumulative IPC: 0.69654 (Simulation time: 0 hr 5 min 56 sec) 
Finished CPU 0 instructions: 100000001 cycles: 143567124 cumulative IPC: 0.69654 (Simulation time: 0 hr 5 min 56 sec) 

ChampSim completed all CPUs

[ROI Statistics]
Core_0_instructions 100000001
Core_0_cycles 143567124
Core_0_IPC 0.69654

Core_0_branch_prediction_accuracy 99.52414
Core_0_branch_MPKI 0.08716
Core_0_average_ROB_occupancy_at_mispredict 253.74828

Core_0_L1D_total_access 32442852
Core_0_L1D_total_hit 30047410
Core_0_L1D_total_miss 2395442
Core_0_L1D_loads 26320540
Core_0_L1D_load_hit 23925123
Core_0_L1D_load_miss 2395417
Core_0_L1D_RFOs 6122312
Core_0_L1D_RFO_hit 6122287
Core_0_L1D_RFO_miss 25
Core_0_L1D_prefetches 0
Core_0_L1D_prefetch_hit 0
Core_0_L1D_prefetch_miss 0
Core_0_L1D_writebacks 0
Core_0_L1D_writeback_hit 0
Core_0_L1D_writeback_miss 0
Core_0_L1D_prefetch_requested 0
Core_0_L1D_prefetch_issued 0
Core_0_L1D_prefetch_useful 0
Core_0_L1D_prefetch_useless 0
Core_0_L1D_prefetch_late 0
Core_0_L1D_average_miss_latency 74.69264

Core_0_L1I_total_access 21199017
Core_0_L1I_total_hit 21198940
Core_0_L1I_total_miss 77
Core_0_L1I_loads 21199017
Core_0_L1I_load_hit 21198940
Core_0_L1I_load_miss 77
Core_0_L1I_RFOs 0
Core_0_L1I_RFO_hit 0
Core_0_L1I_RFO_miss 0
Core_0_L1I_prefetches 0
Core_0_L1I_prefetch_hit 0
Core_0_L1I_prefetch_miss 0
Core_0_L1I_writebacks 0
Core_0_L1I_writeback_hit 0
Core_0_L1I_writeback_miss 0
Core_0_L1I_prefetch_requested 0
Core_0_L1I_prefetch_issued 0
Core_0_L1I_prefetch_useful 0
Core_0_L1I_prefetch_useless 0
Core_0_L1I_prefetch_late 0
Core_0_L1I_average_miss_latency 198.18182

Core_0_L2C_total_access 4862297
Core_0_L2C_total_hit 2778164
Core_0_L2C_total_miss 2084133
Core_0_L2C_loads 2395492
Core_0_L2C_load_hit 1654844
Core_0_L2C_load_miss 740648
Core_0_L2C_RFOs 25
Core_0_L2C_RFO_hit 0
Core_0_L2C_RFO_miss 25
Core_0_L2C_prefetches 1786493
Core_0_L2C_prefetch_hit 443132
Core_0_L2C_prefetch_miss 1343361
Core_0_L2C_writebacks 680287
Core_0_L2C_writeback_hit 680188
Core_0_L2C_writeback_miss 99
Core_0_L2C_prefetch_requested 5931294
Core_0_L2C_prefetch_issued 5838362
Core_0_L2C_prefetch_useful 1462869
Core_0_L2C_prefetch_useless 571385
Core_0_L2C_prefetch_late 563729
Core_0_L2C_average_miss_latency 279.63633

Core_0_LLC_total_access 2759467
Core_0_LLC_total_hit 804494
Core_0_LLC_total_miss 1954973
Core_0_LLC_loads 176950
Core_0_LLC_load_hit 70781
Core_0_LLC_load_miss 106169
Core_0_LLC_RFOs 25
Core_0_LLC_RFO_hit 0
Core_0_LLC_RFO_miss 25
Core_0_LLC_prefetches 1907059
Core_0_LLC_prefetch_hit 69188
Core_0_LLC_prefetch_miss 1837871
Core_0_LLC_writebacks 675433
Core_0_LLC_writeback_hit 664525
Core_0_LLC_writeback_miss 10908
Core_0_LLC_prefetch_requested 0
Core_0_LLC_prefetch_issued 0
Core_0_LLC_prefetch_useful 53531
Core_0_LLC_prefetch_useless 2304474
Core_0_LLC_prefetch_late 0
Core_0_LLC_average_miss_latency 352.92327

Core_0_major_page_fault 0
Core_0_minor_page_fault 80857

CPU 0 L2C next line prefetcher final stats
Channel_0_RQ_row_buffer_hit 440897
Channel_0_RQ_row_buffer_miss 1503168
Channel_0_WQ_row_buffer_hit 129948
Channel_0_WQ_row_buffer_miss 534536
Channel_0_WQ_full 0
Channel_0_dbus_congested 1070171

avg_congested_cycle 10
