*************************************************
   ChampSim Multicore Out-of-Order Simulator
   Last compiled: Dec 25 2023 14:09:59
*************************************************

trace_0 ./test_trace/459.GemsFDTD-1320B.champsimtrace.xz
CPU 0 L2C IP-based stride prefetcher
Initialize DRRIP state
Assign rand_sets[0]: 454  LLC: 2048
rand_sets[0]: 454
Assign rand_sets[1]: 1662  LLC: 2048
rand_sets[1]: 1662
Assign rand_sets[2]: 1921  LLC: 2048
rand_sets[2]: 1921
Assign rand_sets[3]: 1131  LLC: 2048
rand_sets[3]: 1131
Assign rand_sets[4]: 331  LLC: 2048
rand_sets[4]: 331
Assign rand_sets[5]: 1531  LLC: 2048
rand_sets[5]: 1531
Assign rand_sets[6]: 482  LLC: 2048
rand_sets[6]: 482
Assign rand_sets[7]: 1275  LLC: 2048
rand_sets[7]: 1275
Assign rand_sets[8]: 1876  LLC: 2048
rand_sets[8]: 1876
Assign rand_sets[9]: 2038  LLC: 2048
rand_sets[9]: 2038
Assign rand_sets[10]: 701  LLC: 2048
rand_sets[10]: 701
Assign rand_sets[11]: 479  LLC: 2048
rand_sets[11]: 479
Assign rand_sets[12]: 892  LLC: 2048
rand_sets[12]: 892
Assign rand_sets[13]: 1820  LLC: 2048
rand_sets[13]: 1820
Assign rand_sets[14]: 1505  LLC: 2048
rand_sets[14]: 1505
Assign rand_sets[15]: 1159  LLC: 2048
rand_sets[15]: 1159
Assign rand_sets[16]: 513  LLC: 2048
rand_sets[16]: 513
Assign rand_sets[17]: 703  LLC: 2048
rand_sets[17]: 703
Assign rand_sets[18]: 561  LLC: 2048
rand_sets[18]: 561
Assign rand_sets[19]: 990  LLC: 2048
rand_sets[19]: 990
Assign rand_sets[20]: 342  LLC: 2048
rand_sets[20]: 342
Assign rand_sets[21]: 882  LLC: 2048
rand_sets[21]: 882
Assign rand_sets[22]: 15  LLC: 2048
rand_sets[22]: 15
Assign rand_sets[23]: 71  LLC: 2048
rand_sets[23]: 71
Assign rand_sets[24]: 1127  LLC: 2048
rand_sets[24]: 1127
Assign rand_sets[25]: 1382  LLC: 2048
rand_sets[25]: 1382
Assign rand_sets[26]: 647  LLC: 2048
rand_sets[26]: 647
Assign rand_sets[27]: 857  LLC: 2048
rand_sets[27]: 857
Assign rand_sets[28]: 1450  LLC: 2048
rand_sets[28]: 1450
Assign rand_sets[29]: 1160  LLC: 2048
rand_sets[29]: 1160
Assign rand_sets[30]: 1852  LLC: 2048
rand_sets[30]: 1852
Assign rand_sets[31]: 1881  LLC: 2048
rand_sets[31]: 1881
Assign rand_sets[32]: 1770  LLC: 2048
rand_sets[32]: 1770
Assign rand_sets[33]: 1622  LLC: 2048
rand_sets[33]: 1622
Assign rand_sets[34]: 275  LLC: 2048
rand_sets[34]: 275
Assign rand_sets[35]: 635  LLC: 2048
rand_sets[35]: 635
Assign rand_sets[36]: 466  LLC: 2048
rand_sets[36]: 466
Assign rand_sets[37]: 1413  LLC: 2048
rand_sets[37]: 1413
Assign rand_sets[38]: 417  LLC: 2048
rand_sets[38]: 417
Assign rand_sets[39]: 472  LLC: 2048
rand_sets[39]: 472
Assign rand_sets[40]: 1340  LLC: 2048
rand_sets[40]: 1340
Assign rand_sets[41]: 852  LLC: 2048
rand_sets[41]: 852
Assign rand_sets[42]: 1365  LLC: 2048
rand_sets[42]: 1365
Assign rand_sets[43]: 47  LLC: 2048
rand_sets[43]: 47
Assign rand_sets[44]: 823  LLC: 2048
rand_sets[44]: 823
Assign rand_sets[45]: 686  LLC: 2048
rand_sets[45]: 686
Assign rand_sets[46]: 1637  LLC: 2048
rand_sets[46]: 1637
Assign rand_sets[47]: 1115  LLC: 2048
rand_sets[47]: 1115
Assign rand_sets[48]: 986  LLC: 2048
rand_sets[48]: 986
Assign rand_sets[49]: 258  LLC: 2048
rand_sets[49]: 258
Assign rand_sets[50]: 633  LLC: 2048
rand_sets[50]: 633
Assign rand_sets[51]: 920  LLC: 2048
rand_sets[51]: 920
Assign rand_sets[52]: 204  LLC: 2048
rand_sets[52]: 204
Assign rand_sets[53]: 227  LLC: 2048
rand_sets[53]: 227
Assign rand_sets[54]: 1818  LLC: 2048
rand_sets[54]: 1818
Assign rand_sets[55]: 886  LLC: 2048
rand_sets[55]: 886
Assign rand_sets[56]: 1422  LLC: 2048
rand_sets[56]: 1422
Assign rand_sets[57]: 607  LLC: 2048
rand_sets[57]: 607
Assign rand_sets[58]: 217  LLC: 2048
rand_sets[58]: 217
Assign rand_sets[59]: 1945  LLC: 2048
rand_sets[59]: 1945
Assign rand_sets[60]: 143  LLC: 2048
rand_sets[60]: 143
Assign rand_sets[61]: 1311  LLC: 2048
rand_sets[61]: 1311
Assign rand_sets[62]: 319  LLC: 2048
rand_sets[62]: 319
Assign rand_sets[63]: 1846  LLC: 2048
rand_sets[63]: 1846
LLC Next Line Prefetcher
warmup_instructions 100000000
simulation_instructions 100000000
champsim_seed 264

num_cpus 1
cpu_freq 4000
dram_io_freq 2400
page_size 4096
block_size 64
max_read_per_cycle 8
max_fill_per_cycle 1
dram_channels 1
dram_ranks 1
dram_banks 8
dram_rows 65536
dram_columns 128
dram_row_size 8
dram_size 4096
dram_pages 1048576

fetch_width 6
decode_width 6
exec_width 4
lq_width 2
sq_width 2
retire_width 4
scheduler_size 128
branch_mispredict_penalty 20
rob_size 256
lq_size 72
sq_size 56
num_instr_destinations_sparc 4
num_instr_destinations 2
num_instr_sources 4

itlb_set 16
itlb_way 8
itlb_rq_size 16
itlb_wq_size 16
itlb_pq_size 0
itlb_mshr_size 8
itlb_latency 1

dtlb_set 16
dtlb_way 4
dtlb_rq_size 16
dtlb_wq_size 16
dtlb_pq_size 0
dtlb_mshr_size 8
dtlb_latency 1

stlb_set 128
stlb_way 12
stlb_rq_size 32
stlb_wq_size 32
stlb_pq_size 0
stlb_mshr_size 16
stlb_latency 8

l1i_size 32
l1i_set 64
l1i_way 8
l1i_rq_size 64
l1i_wq_size 64
l1i_pq_size 8
l1i_mshr_size 8
l1i_latency 1

l1d_size 32
l1d_set 64
l1d_way 8
l1d_rq_size 64
l1d_wq_size 64
l1d_pq_size 8
l1d_mshr_size 16
l1d_latency 4

l2c_size 512
l2c_set 1024
l2c_way 8
l2c_rq_size 32
l2c_wq_size 32
l2c_pq_size 16
l2c_mshr_size 32
l2c_latency 10

llc_size 2048
llc_set 2048
llc_way 16
llc_rq_size 32
llc_wq_size 32
llc_pq_size 32
llc_mshr_size 64
llc_latency 20

dram_channel_width 8
dram_wq_size 64
dram_rq_size 64
tRP 15
tRCD 15
tCAS 12.5
dram_dbus_turn_around_time 30
dram_write_high_wm 56
dram_write_low_wm 48
min_dram_writes_per_switch 16
dram_mtps 2400
dram_dbus_return_time 13


Heartbeat CPU  0 instructions:    1000000 cycles:     673290 heartbeat IPC: 1.48524 cumulative IPC: 1.48524 (Simulation time: 0 hr 0 min 2 sec) 
Heartbeat CPU  0 instructions:    2000003 cycles:    1346083 heartbeat IPC: 1.48635 cumulative IPC: 1.48579 (Simulation time: 0 hr 0 min 4 sec) 
Heartbeat CPU  0 instructions:    3000002 cycles:    2018789 heartbeat IPC: 1.48653 cumulative IPC: 1.48604 (Simulation time: 0 hr 0 min 6 sec) 
Heartbeat CPU  0 instructions:    4000000 cycles:    2691620 heartbeat IPC: 1.48625 cumulative IPC: 1.48609 (Simulation time: 0 hr 0 min 8 sec) 
Heartbeat CPU  0 instructions:    5000001 cycles:    3364565 heartbeat IPC: 1.48601 cumulative IPC: 1.48608 (Simulation time: 0 hr 0 min 9 sec) 
Heartbeat CPU  0 instructions:    6000001 cycles:    4036932 heartbeat IPC: 1.48728 cumulative IPC: 1.48628 (Simulation time: 0 hr 0 min 11 sec) 
Heartbeat CPU  0 instructions:    7000001 cycles:    4709439 heartbeat IPC: 1.48697 cumulative IPC: 1.48638 (Simulation time: 0 hr 0 min 13 sec) 
Heartbeat CPU  0 instructions:    8000000 cycles:    5382090 heartbeat IPC: 1.48665 cumulative IPC: 1.48641 (Simulation time: 0 hr 0 min 15 sec) 
Heartbeat CPU  0 instructions:    9000003 cycles:    6054727 heartbeat IPC: 1.48669 cumulative IPC: 1.48644 (Simulation time: 0 hr 0 min 16 sec) 
Heartbeat CPU  0 instructions:   10000003 cycles:    6727471 heartbeat IPC: 1.48645 cumulative IPC: 1.48644 (Simulation time: 0 hr 0 min 18 sec) 
Heartbeat CPU  0 instructions:   11000003 cycles:    7400125 heartbeat IPC: 1.48665 cumulative IPC: 1.48646 (Simulation time: 0 hr 0 min 20 sec) 
Heartbeat CPU  0 instructions:   12000000 cycles:    8072688 heartbeat IPC: 1.48685 cumulative IPC: 1.48649 (Simulation time: 0 hr 0 min 22 sec) 
Heartbeat CPU  0 instructions:   13000000 cycles:    8750355 heartbeat IPC: 1.47565 cumulative IPC: 1.48565 (Simulation time: 0 hr 0 min 24 sec) 
Heartbeat CPU  0 instructions:   14000002 cycles:    9429420 heartbeat IPC: 1.47262 cumulative IPC: 1.48472 (Simulation time: 0 hr 0 min 25 sec) 
Heartbeat CPU  0 instructions:   15000000 cycles:   10108554 heartbeat IPC: 1.47246 cumulative IPC: 1.48389 (Simulation time: 0 hr 0 min 27 sec) 
Heartbeat CPU  0 instructions:   16000000 cycles:   10787666 heartbeat IPC: 1.47251 cumulative IPC: 1.48318 (Simulation time: 0 hr 0 min 29 sec) 
Heartbeat CPU  0 instructions:   17000002 cycles:   11466865 heartbeat IPC: 1.47233 cumulative IPC: 1.48253 (Simulation time: 0 hr 0 min 31 sec) 
Heartbeat CPU  0 instructions:   18000003 cycles:   12145971 heartbeat IPC: 1.47253 cumulative IPC: 1.48197 (Simulation time: 0 hr 0 min 32 sec) 
Heartbeat CPU  0 instructions:   19000003 cycles:   12825004 heartbeat IPC: 1.47268 cumulative IPC: 1.48148 (Simulation time: 0 hr 0 min 34 sec) 
Heartbeat CPU  0 instructions:   20000000 cycles:   13504210 heartbeat IPC: 1.47230 cumulative IPC: 1.48102 (Simulation time: 0 hr 0 min 36 sec) 
Heartbeat CPU  0 instructions:   21000002 cycles:   14183389 heartbeat IPC: 1.47237 cumulative IPC: 1.48061 (Simulation time: 0 hr 0 min 38 sec) 
Heartbeat CPU  0 instructions:   22000000 cycles:   14862562 heartbeat IPC: 1.47238 cumulative IPC: 1.48023 (Simulation time: 0 hr 0 min 39 sec) 
Heartbeat CPU  0 instructions:   23000000 cycles:   15541686 heartbeat IPC: 1.47249 cumulative IPC: 1.47989 (Simulation time: 0 hr 0 min 41 sec) 
Heartbeat CPU  0 instructions:   24000000 cycles:   16220840 heartbeat IPC: 1.47242 cumulative IPC: 1.47958 (Simulation time: 0 hr 0 min 43 sec) 
Heartbeat CPU  0 instructions:   25000001 cycles:   16900080 heartbeat IPC: 1.47224 cumulative IPC: 1.47928 (Simulation time: 0 hr 0 min 45 sec) 
Heartbeat CPU  0 instructions:   26000001 cycles:   17579274 heartbeat IPC: 1.47233 cumulative IPC: 1.47901 (Simulation time: 0 hr 0 min 47 sec) 
Heartbeat CPU  0 instructions:   27000001 cycles:   18258414 heartbeat IPC: 1.47245 cumulative IPC: 1.47877 (Simulation time: 0 hr 0 min 48 sec) 
Heartbeat CPU  0 instructions:   28000000 cycles:   18936776 heartbeat IPC: 1.47414 cumulative IPC: 1.47860 (Simulation time: 0 hr 0 min 50 sec) 
Heartbeat CPU  0 instructions:   29000002 cycles:   19613434 heartbeat IPC: 1.47785 cumulative IPC: 1.47858 (Simulation time: 0 hr 0 min 52 sec) 
Heartbeat CPU  0 instructions:   30000000 cycles:   20290089 heartbeat IPC: 1.47786 cumulative IPC: 1.47855 (Simulation time: 0 hr 0 min 54 sec) 
Heartbeat CPU  0 instructions:   31000000 cycles:   20966641 heartbeat IPC: 1.47808 cumulative IPC: 1.47854 (Simulation time: 0 hr 0 min 55 sec) 
Heartbeat CPU  0 instructions:   32000000 cycles:   21643182 heartbeat IPC: 1.47811 cumulative IPC: 1.47853 (Simulation time: 0 hr 0 min 57 sec) 
Heartbeat CPU  0 instructions:   33000002 cycles:   22319941 heartbeat IPC: 1.47763 cumulative IPC: 1.47850 (Simulation time: 0 hr 0 min 59 sec) 
Heartbeat CPU  0 instructions:   34000000 cycles:   22996563 heartbeat IPC: 1.47793 cumulative IPC: 1.47848 (Simulation time: 0 hr 1 min 1 sec) 
Heartbeat CPU  0 instructions:   35000002 cycles:   23673191 heartbeat IPC: 1.47792 cumulative IPC: 1.47847 (Simulation time: 0 hr 1 min 2 sec) 
Heartbeat CPU  0 instructions:   36000000 cycles:   24349799 heartbeat IPC: 1.47796 cumulative IPC: 1.47845 (Simulation time: 0 hr 1 min 4 sec) 
Heartbeat CPU  0 instructions:   37000000 cycles:   25026571 heartbeat IPC: 1.47760 cumulative IPC: 1.47843 (Simulation time: 0 hr 1 min 6 sec) 
Heartbeat CPU  0 instructions:   38000000 cycles:   25703200 heartbeat IPC: 1.47791 cumulative IPC: 1.47842 (Simulation time: 0 hr 1 min 8 sec) 
Heartbeat CPU  0 instructions:   39000002 cycles:   26379876 heartbeat IPC: 1.47782 cumulative IPC: 1.47840 (Simulation time: 0 hr 1 min 9 sec) 
Heartbeat CPU  0 instructions:   40000000 cycles:   27056655 heartbeat IPC: 1.47758 cumulative IPC: 1.47838 (Simulation time: 0 hr 1 min 11 sec) 
Heartbeat CPU  0 instructions:   41000000 cycles:   27733478 heartbeat IPC: 1.47749 cumulative IPC: 1.47836 (Simulation time: 0 hr 1 min 13 sec) 
Heartbeat CPU  0 instructions:   42000002 cycles:   28410084 heartbeat IPC: 1.47797 cumulative IPC: 1.47835 (Simulation time: 0 hr 1 min 15 sec) 
Heartbeat CPU  0 instructions:   43000002 cycles:   29086657 heartbeat IPC: 1.47804 cumulative IPC: 1.47834 (Simulation time: 0 hr 1 min 16 sec) 
Heartbeat CPU  0 instructions:   44000000 cycles:   29752995 heartbeat IPC: 1.50074 cumulative IPC: 1.47884 (Simulation time: 0 hr 1 min 18 sec) 
Heartbeat CPU  0 instructions:   45000003 cycles:   30419254 heartbeat IPC: 1.50092 cumulative IPC: 1.47933 (Simulation time: 0 hr 1 min 20 sec) 
Heartbeat CPU  0 instructions:   46000001 cycles:   31085215 heartbeat IPC: 1.50159 cumulative IPC: 1.47980 (Simulation time: 0 hr 1 min 22 sec) 
Heartbeat CPU  0 instructions:   47000000 cycles:   31751248 heartbeat IPC: 1.50143 cumulative IPC: 1.48026 (Simulation time: 0 hr 1 min 24 sec) 
Heartbeat CPU  0 instructions:   48000000 cycles:   32417073 heartbeat IPC: 1.50190 cumulative IPC: 1.48070 (Simulation time: 0 hr 1 min 26 sec) 
Heartbeat CPU  0 instructions:   49000000 cycles:   33083024 heartbeat IPC: 1.50161 cumulative IPC: 1.48112 (Simulation time: 0 hr 1 min 27 sec) 
Heartbeat CPU  0 instructions:   50000003 cycles:   33749149 heartbeat IPC: 1.50122 cumulative IPC: 1.48152 (Simulation time: 0 hr 1 min 29 sec) 
Heartbeat CPU  0 instructions:   51000003 cycles:   34415152 heartbeat IPC: 1.50149 cumulative IPC: 1.48191 (Simulation time: 0 hr 1 min 31 sec) 
Heartbeat CPU  0 instructions:   52000000 cycles:   35081260 heartbeat IPC: 1.50125 cumulative IPC: 1.48227 (Simulation time: 0 hr 1 min 33 sec) 
Heartbeat CPU  0 instructions:   53000003 cycles:   35747272 heartbeat IPC: 1.50148 cumulative IPC: 1.48263 (Simulation time: 0 hr 1 min 35 sec) 
Heartbeat CPU  0 instructions:   54000000 cycles:   36413034 heartbeat IPC: 1.50203 cumulative IPC: 1.48299 (Simulation time: 0 hr 1 min 36 sec) 
Heartbeat CPU  0 instructions:   55000000 cycles:   37079130 heartbeat IPC: 1.50129 cumulative IPC: 1.48331 (Simulation time: 0 hr 1 min 38 sec) 
Heartbeat CPU  0 instructions:   56000000 cycles:   37740745 heartbeat IPC: 1.51145 cumulative IPC: 1.48381 (Simulation time: 0 hr 1 min 40 sec) 
Heartbeat CPU  0 instructions:   57000003 cycles:   38401752 heartbeat IPC: 1.51285 cumulative IPC: 1.48431 (Simulation time: 0 hr 1 min 42 sec) 
Heartbeat CPU  0 instructions:   58000000 cycles:   39062960 heartbeat IPC: 1.51238 cumulative IPC: 1.48478 (Simulation time: 0 hr 1 min 44 sec) 
Heartbeat CPU  0 instructions:   59000000 cycles:   39724025 heartbeat IPC: 1.51271 cumulative IPC: 1.48525 (Simulation time: 0 hr 1 min 45 sec) 
Heartbeat CPU  0 instructions:   60000000 cycles:   40385044 heartbeat IPC: 1.51282 cumulative IPC: 1.48570 (Simulation time: 0 hr 1 min 47 sec) 
Heartbeat CPU  0 instructions:   61000001 cycles:   41046732 heartbeat IPC: 1.51129 cumulative IPC: 1.48611 (Simulation time: 0 hr 1 min 49 sec) 
Heartbeat CPU  0 instructions:   62000000 cycles:   41707957 heartbeat IPC: 1.51234 cumulative IPC: 1.48653 (Simulation time: 0 hr 1 min 51 sec) 
Heartbeat CPU  0 instructions:   63000001 cycles:   42369131 heartbeat IPC: 1.51246 cumulative IPC: 1.48693 (Simulation time: 0 hr 1 min 53 sec) 
Heartbeat CPU  0 instructions:   64000000 cycles:   43030285 heartbeat IPC: 1.51251 cumulative IPC: 1.48732 (Simulation time: 0 hr 1 min 54 sec) 
Heartbeat CPU  0 instructions:   65000003 cycles:   43691520 heartbeat IPC: 1.51233 cumulative IPC: 1.48770 (Simulation time: 0 hr 1 min 56 sec) 
Heartbeat CPU  0 instructions:   66000000 cycles:   44352645 heartbeat IPC: 1.51257 cumulative IPC: 1.48807 (Simulation time: 0 hr 1 min 58 sec) 
Heartbeat CPU  0 instructions:   67000000 cycles:   45014029 heartbeat IPC: 1.51198 cumulative IPC: 1.48842 (Simulation time: 0 hr 2 min 0 sec) 
Heartbeat CPU  0 instructions:   68000000 cycles:   45684213 heartbeat IPC: 1.49213 cumulative IPC: 1.48848 (Simulation time: 0 hr 2 min 2 sec) 
Heartbeat CPU  0 instructions:   69000002 cycles:   46354855 heartbeat IPC: 1.49111 cumulative IPC: 1.48852 (Simulation time: 0 hr 2 min 3 sec) 
Heartbeat CPU  0 instructions:   70000001 cycles:   47025893 heartbeat IPC: 1.49023 cumulative IPC: 1.48854 (Simulation time: 0 hr 2 min 5 sec) 
Heartbeat CPU  0 instructions:   71000002 cycles:   47696622 heartbeat IPC: 1.49092 cumulative IPC: 1.48858 (Simulation time: 0 hr 2 min 7 sec) 
Heartbeat CPU  0 instructions:   72000000 cycles:   48367572 heartbeat IPC: 1.49042 cumulative IPC: 1.48860 (Simulation time: 0 hr 2 min 9 sec) 
Heartbeat CPU  0 instructions:   73000000 cycles:   49038463 heartbeat IPC: 1.49056 cumulative IPC: 1.48863 (Simulation time: 0 hr 2 min 11 sec) 
Heartbeat CPU  0 instructions:   74000000 cycles:   49709188 heartbeat IPC: 1.49092 cumulative IPC: 1.48866 (Simulation time: 0 hr 2 min 12 sec) 
Heartbeat CPU  0 instructions:   75000001 cycles:   50380276 heartbeat IPC: 1.49012 cumulative IPC: 1.48868 (Simulation time: 0 hr 2 min 14 sec) 
Heartbeat CPU  0 instructions:   76000000 cycles:   51050733 heartbeat IPC: 1.49152 cumulative IPC: 1.48872 (Simulation time: 0 hr 2 min 16 sec) 
Heartbeat CPU  0 instructions:   77000000 cycles:   51721736 heartbeat IPC: 1.49031 cumulative IPC: 1.48874 (Simulation time: 0 hr 2 min 18 sec) 
Heartbeat CPU  0 instructions:   78000003 cycles:   52392644 heartbeat IPC: 1.49052 cumulative IPC: 1.48876 (Simulation time: 0 hr 2 min 20 sec) 
Heartbeat CPU  0 instructions:   79000002 cycles:   53063275 heartbeat IPC: 1.49113 cumulative IPC: 1.48879 (Simulation time: 0 hr 2 min 21 sec) 
Heartbeat CPU  0 instructions:   80000000 cycles:   53735938 heartbeat IPC: 1.48663 cumulative IPC: 1.48876 (Simulation time: 0 hr 2 min 23 sec) 
Heartbeat CPU  0 instructions:   81000003 cycles:   54409376 heartbeat IPC: 1.48492 cumulative IPC: 1.48871 (Simulation time: 0 hr 2 min 25 sec) 
Heartbeat CPU  0 instructions:   82000001 cycles:   55082345 heartbeat IPC: 1.48595 cumulative IPC: 1.48868 (Simulation time: 0 hr 2 min 27 sec) 
Heartbeat CPU  0 instructions:   83000002 cycles:   55755650 heartbeat IPC: 1.48521 cumulative IPC: 1.48864 (Simulation time: 0 hr 2 min 29 sec) 
Heartbeat CPU  0 instructions:   84000000 cycles:   56428451 heartbeat IPC: 1.48632 cumulative IPC: 1.48861 (Simulation time: 0 hr 2 min 31 sec) 
Heartbeat CPU  0 instructions:   85000000 cycles:   57101604 heartbeat IPC: 1.48555 cumulative IPC: 1.48857 (Simulation time: 0 hr 2 min 32 sec) 
Heartbeat CPU  0 instructions:   86000001 cycles:   57774633 heartbeat IPC: 1.48582 cumulative IPC: 1.48854 (Simulation time: 0 hr 2 min 34 sec) 
Heartbeat CPU  0 instructions:   87000000 cycles:   58447792 heartbeat IPC: 1.48553 cumulative IPC: 1.48851 (Simulation time: 0 hr 2 min 36 sec) 
Heartbeat CPU  0 instructions:   88000000 cycles:   59121046 heartbeat IPC: 1.48532 cumulative IPC: 1.48847 (Simulation time: 0 hr 2 min 38 sec) 
Heartbeat CPU  0 instructions:   89000002 cycles:   59794254 heartbeat IPC: 1.48543 cumulative IPC: 1.48844 (Simulation time: 0 hr 2 min 40 sec) 
Heartbeat CPU  0 instructions:   90000001 cycles:   60467223 heartbeat IPC: 1.48595 cumulative IPC: 1.48841 (Simulation time: 0 hr 2 min 41 sec) 
Heartbeat CPU  0 instructions:   91000000 cycles:   61140147 heartbeat IPC: 1.48605 cumulative IPC: 1.48838 (Simulation time: 0 hr 2 min 43 sec) 
Heartbeat CPU  0 instructions:   92000000 cycles:   61816328 heartbeat IPC: 1.47889 cumulative IPC: 1.48828 (Simulation time: 0 hr 2 min 45 sec) 
Heartbeat CPU  0 instructions:   93000001 cycles:   62495440 heartbeat IPC: 1.47251 cumulative IPC: 1.48811 (Simulation time: 0 hr 2 min 47 sec) 
Heartbeat CPU  0 instructions:   94000001 cycles:   63174403 heartbeat IPC: 1.47283 cumulative IPC: 1.48794 (Simulation time: 0 hr 2 min 49 sec) 
Heartbeat CPU  0 instructions:   95000001 cycles:   63853513 heartbeat IPC: 1.47252 cumulative IPC: 1.48778 (Simulation time: 0 hr 2 min 50 sec) 
Heartbeat CPU  0 instructions:   96000000 cycles:   64532591 heartbeat IPC: 1.47258 cumulative IPC: 1.48762 (Simulation time: 0 hr 2 min 52 sec) 
Heartbeat CPU  0 instructions:   97000000 cycles:   65211655 heartbeat IPC: 1.47262 cumulative IPC: 1.48746 (Simulation time: 0 hr 2 min 54 sec) 
Heartbeat CPU  0 instructions:   98000000 cycles:   65890782 heartbeat IPC: 1.47248 cumulative IPC: 1.48731 (Simulation time: 0 hr 2 min 56 sec) 
Heartbeat CPU  0 instructions:   99000000 cycles:   66569886 heartbeat IPC: 1.47253 cumulative IPC: 1.48716 (Simulation time: 0 hr 2 min 57 sec) 
Heartbeat CPU  0 instructions:  100000000 cycles:   67248993 heartbeat IPC: 1.47252 cumulative IPC: 1.48701 (Simulation time: 0 hr 2 min 59 sec) 

Warmup complete CPU  0 instructions:  100000001 cycles:   67248994 (Simulation time: 0 hr 2 min 59 sec) 

Heartbeat CPU  0 instructions:  101000000 cycles:   68440742 heartbeat IPC: 0.83910 cumulative IPC: 0.83910 (Simulation time: 0 hr 3 min 1 sec) 
Heartbeat CPU  0 instructions:  102000002 cycles:   69630681 heartbeat IPC: 0.84038 cumulative IPC: 0.83974 (Simulation time: 0 hr 3 min 3 sec) 
Heartbeat CPU  0 instructions:  103000001 cycles:   70817805 heartbeat IPC: 0.84237 cumulative IPC: 0.84062 (Simulation time: 0 hr 3 min 5 sec) 
Heartbeat CPU  0 instructions:  104000000 cycles:   72007800 heartbeat IPC: 0.84034 cumulative IPC: 0.84055 (Simulation time: 0 hr 3 min 7 sec) 
Heartbeat CPU  0 instructions:  105000001 cycles:   73199425 heartbeat IPC: 0.83919 cumulative IPC: 0.84028 (Simulation time: 0 hr 3 min 9 sec) 
Heartbeat CPU  0 instructions:  106000001 cycles:   74388644 heartbeat IPC: 0.84089 cumulative IPC: 0.84038 (Simulation time: 0 hr 3 min 11 sec) 
Heartbeat CPU  0 instructions:  107000002 cycles:   75777205 heartbeat IPC: 0.72017 cumulative IPC: 0.82081 (Simulation time: 0 hr 3 min 13 sec) 
Heartbeat CPU  0 instructions:  108000000 cycles:   76969385 heartbeat IPC: 0.83880 cumulative IPC: 0.82301 (Simulation time: 0 hr 3 min 15 sec) 
Heartbeat CPU  0 instructions:  109000000 cycles:   78151944 heartbeat IPC: 0.84562 cumulative IPC: 0.82546 (Simulation time: 0 hr 3 min 17 sec) 
Heartbeat CPU  0 instructions:  110000002 cycles:   79340877 heartbeat IPC: 0.84109 cumulative IPC: 0.82700 (Simulation time: 0 hr 3 min 19 sec) 
Heartbeat CPU  0 instructions:  111000000 cycles:   80535480 heartbeat IPC: 0.83710 cumulative IPC: 0.82791 (Simulation time: 0 hr 3 min 21 sec) 
Heartbeat CPU  0 instructions:  112000000 cycles:   81724503 heartbeat IPC: 0.84103 cumulative IPC: 0.82899 (Simulation time: 0 hr 3 min 23 sec) 
Heartbeat CPU  0 instructions:  113000000 cycles:   82924251 heartbeat IPC: 0.83351 cumulative IPC: 0.82933 (Simulation time: 0 hr 3 min 25 sec) 
Heartbeat CPU  0 instructions:  114000002 cycles:   84121454 heartbeat IPC: 0.83528 cumulative IPC: 0.82975 (Simulation time: 0 hr 3 min 27 sec) 
Heartbeat CPU  0 instructions:  115000002 cycles:   85319726 heartbeat IPC: 0.83454 cumulative IPC: 0.83007 (Simulation time: 0 hr 3 min 29 sec) 
Heartbeat CPU  0 instructions:  116000000 cycles:   86519597 heartbeat IPC: 0.83342 cumulative IPC: 0.83028 (Simulation time: 0 hr 3 min 31 sec) 
Heartbeat CPU  0 instructions:  117000002 cycles:   87725392 heartbeat IPC: 0.82933 cumulative IPC: 0.83022 (Simulation time: 0 hr 3 min 33 sec) 
Heartbeat CPU  0 instructions:  118000000 cycles:   88918080 heartbeat IPC: 0.83844 cumulative IPC: 0.83068 (Simulation time: 0 hr 3 min 35 sec) 
Heartbeat CPU  0 instructions:  119000000 cycles:   90120897 heartbeat IPC: 0.83138 cumulative IPC: 0.83071 (Simulation time: 0 hr 3 min 37 sec) 
Heartbeat CPU  0 instructions:  120000000 cycles:   91315497 heartbeat IPC: 0.83710 cumulative IPC: 0.83103 (Simulation time: 0 hr 3 min 39 sec) 
Heartbeat CPU  0 instructions:  121000002 cycles:   92524270 heartbeat IPC: 0.82729 cumulative IPC: 0.83085 (Simulation time: 0 hr 3 min 41 sec) 
Heartbeat CPU  0 instructions:  122000002 cycles:   93735308 heartbeat IPC: 0.82574 cumulative IPC: 0.83062 (Simulation time: 0 hr 3 min 43 sec) 
Heartbeat CPU  0 instructions:  123000003 cycles:   94585432 heartbeat IPC: 1.17630 cumulative IPC: 0.84137 (Simulation time: 0 hr 3 min 45 sec) 
Heartbeat CPU  0 instructions:  124000000 cycles:   95447246 heartbeat IPC: 1.16034 cumulative IPC: 0.85112 (Simulation time: 0 hr 3 min 46 sec) 
Heartbeat CPU  0 instructions:  125000000 cycles:   96396383 heartbeat IPC: 1.05359 cumulative IPC: 0.85771 (Simulation time: 0 hr 3 min 48 sec) 
Heartbeat CPU  0 instructions:  126000001 cycles:   97417749 heartbeat IPC: 0.97908 cumulative IPC: 0.86182 (Simulation time: 0 hr 3 min 50 sec) 
Heartbeat CPU  0 instructions:  127000001 cycles:   98444977 heartbeat IPC: 0.97349 cumulative IPC: 0.86550 (Simulation time: 0 hr 3 min 51 sec) 
Heartbeat CPU  0 instructions:  128000000 cycles:   99455833 heartbeat IPC: 0.98926 cumulative IPC: 0.86938 (Simulation time: 0 hr 3 min 53 sec) 
Heartbeat CPU  0 instructions:  129000003 cycles:  100474972 heartbeat IPC: 0.98122 cumulative IPC: 0.87281 (Simulation time: 0 hr 3 min 55 sec) 
Heartbeat CPU  0 instructions:  130000002 cycles:  101488047 heartbeat IPC: 0.98709 cumulative IPC: 0.87619 (Simulation time: 0 hr 3 min 56 sec) 
Heartbeat CPU  0 instructions:  131000003 cycles:  102490881 heartbeat IPC: 0.99717 cumulative IPC: 0.87964 (Simulation time: 0 hr 3 min 58 sec) 
Heartbeat CPU  0 instructions:  132000000 cycles:  103506355 heartbeat IPC: 0.98476 cumulative IPC: 0.88258 (Simulation time: 0 hr 4 min 0 sec) 
Heartbeat CPU  0 instructions:  133000000 cycles:  104511530 heartbeat IPC: 0.99485 cumulative IPC: 0.88561 (Simulation time: 0 hr 4 min 1 sec) 
Heartbeat CPU  0 instructions:  134000002 cycles:  105521469 heartbeat IPC: 0.99016 cumulative IPC: 0.88837 (Simulation time: 0 hr 4 min 3 sec) 
Heartbeat CPU  0 instructions:  135000001 cycles:  106530635 heartbeat IPC: 0.99092 cumulative IPC: 0.89100 (Simulation time: 0 hr 4 min 5 sec) 
Heartbeat CPU  0 instructions:  136000000 cycles:  107543700 heartbeat IPC: 0.98710 cumulative IPC: 0.89342 (Simulation time: 0 hr 4 min 6 sec) 
Heartbeat CPU  0 instructions:  137000002 cycles:  108565714 heartbeat IPC: 0.97846 cumulative IPC: 0.89552 (Simulation time: 0 hr 4 min 8 sec) 
Heartbeat CPU  0 instructions:  138000000 cycles:  109577390 heartbeat IPC: 0.98846 cumulative IPC: 0.89774 (Simulation time: 0 hr 4 min 10 sec) 
Heartbeat CPU  0 instructions:  139000000 cycles:  110588465 heartbeat IPC: 0.98905 cumulative IPC: 0.89987 (Simulation time: 0 hr 4 min 11 sec) 
Heartbeat CPU  0 instructions:  140000000 cycles:  111608583 heartbeat IPC: 0.98028 cumulative IPC: 0.90172 (Simulation time: 0 hr 4 min 13 sec) 
Heartbeat CPU  0 instructions:  141000000 cycles:  112613037 heartbeat IPC: 0.99557 cumulative IPC: 0.90380 (Simulation time: 0 hr 4 min 15 sec) 
Heartbeat CPU  0 instructions:  142000001 cycles:  113622662 heartbeat IPC: 0.99047 cumulative IPC: 0.90569 (Simulation time: 0 hr 4 min 16 sec) 
Heartbeat CPU  0 instructions:  143000001 cycles:  114626024 heartbeat IPC: 0.99665 cumulative IPC: 0.90761 (Simulation time: 0 hr 4 min 18 sec) 
Heartbeat CPU  0 instructions:  144000000 cycles:  115643488 heartbeat IPC: 0.98283 cumulative IPC: 0.90919 (Simulation time: 0 hr 4 min 20 sec) 
Heartbeat CPU  0 instructions:  145000002 cycles:  116643330 heartbeat IPC: 1.00016 cumulative IPC: 0.91104 (Simulation time: 0 hr 4 min 21 sec) 
Heartbeat CPU  0 instructions:  146000000 cycles:  117668198 heartbeat IPC: 0.97573 cumulative IPC: 0.91235 (Simulation time: 0 hr 4 min 23 sec) 
Heartbeat CPU  0 instructions:  147000003 cycles:  118673338 heartbeat IPC: 0.99489 cumulative IPC: 0.91396 (Simulation time: 0 hr 4 min 25 sec) 
Heartbeat CPU  0 instructions:  148000000 cycles:  119731593 heartbeat IPC: 0.94495 cumulative IPC: 0.91459 (Simulation time: 0 hr 4 min 26 sec) 
Heartbeat CPU  0 instructions:  149000000 cycles:  120918414 heartbeat IPC: 0.84259 cumulative IPC: 0.91300 (Simulation time: 0 hr 4 min 28 sec) 
Heartbeat CPU  0 instructions:  150000002 cycles:  122088966 heartbeat IPC: 0.85430 cumulative IPC: 0.91174 (Simulation time: 0 hr 4 min 30 sec) 
Heartbeat CPU  0 instructions:  151000001 cycles:  123295061 heartbeat IPC: 0.82912 cumulative IPC: 0.90997 (Simulation time: 0 hr 4 min 31 sec) 
Heartbeat CPU  0 instructions:  152000000 cycles:  124445105 heartbeat IPC: 0.86953 cumulative IPC: 0.90915 (Simulation time: 0 hr 4 min 33 sec) 
Heartbeat CPU  0 instructions:  153000002 cycles:  125654760 heartbeat IPC: 0.82668 cumulative IPC: 0.90744 (Simulation time: 0 hr 4 min 35 sec) 
Heartbeat CPU  0 instructions:  154000003 cycles:  126824387 heartbeat IPC: 0.85497 cumulative IPC: 0.90641 (Simulation time: 0 hr 4 min 37 sec) 
Heartbeat CPU  0 instructions:  155000000 cycles:  128033704 heartbeat IPC: 0.82691 cumulative IPC: 0.90483 (Simulation time: 0 hr 4 min 38 sec) 
Heartbeat CPU  0 instructions:  156000000 cycles:  129202962 heartbeat IPC: 0.85524 cumulative IPC: 0.90390 (Simulation time: 0 hr 4 min 40 sec) 
Heartbeat CPU  0 instructions:  157000001 cycles:  130421582 heartbeat IPC: 0.82060 cumulative IPC: 0.90229 (Simulation time: 0 hr 4 min 42 sec) 
Heartbeat CPU  0 instructions:  158000001 cycles:  131600016 heartbeat IPC: 0.84858 cumulative IPC: 0.90131 (Simulation time: 0 hr 4 min 44 sec) 
Heartbeat CPU  0 instructions:  159000001 cycles:  132806574 heartbeat IPC: 0.82880 cumulative IPC: 0.89997 (Simulation time: 0 hr 4 min 45 sec) 
Heartbeat CPU  0 instructions:  160000000 cycles:  133990275 heartbeat IPC: 0.84481 cumulative IPC: 0.89899 (Simulation time: 0 hr 4 min 47 sec) 
Heartbeat CPU  0 instructions:  161000002 cycles:  135210807 heartbeat IPC: 0.81932 cumulative IPC: 0.89756 (Simulation time: 0 hr 4 min 49 sec) 
Heartbeat CPU  0 instructions:  162000003 cycles:  136386050 heartbeat IPC: 0.85089 cumulative IPC: 0.89677 (Simulation time: 0 hr 4 min 51 sec) 
Heartbeat CPU  0 instructions:  163000003 cycles:  137604413 heartbeat IPC: 0.82077 cumulative IPC: 0.89545 (Simulation time: 0 hr 4 min 53 sec) 
Heartbeat CPU  0 instructions:  164000000 cycles:  138788696 heartbeat IPC: 0.84439 cumulative IPC: 0.89461 (Simulation time: 0 hr 4 min 54 sec) 
Heartbeat CPU  0 instructions:  165000000 cycles:  140028510 heartbeat IPC: 0.80657 cumulative IPC: 0.89311 (Simulation time: 0 hr 4 min 56 sec) 
Heartbeat CPU  0 instructions:  166000002 cycles:  141186577 heartbeat IPC: 0.86351 cumulative IPC: 0.89264 (Simulation time: 0 hr 4 min 58 sec) 
Heartbeat CPU  0 instructions:  167000001 cycles:  142425292 heartbeat IPC: 0.80729 cumulative IPC: 0.89124 (Simulation time: 0 hr 5 min 0 sec) 
Heartbeat CPU  0 instructions:  168000000 cycles:  143578766 heartbeat IPC: 0.86695 cumulative IPC: 0.89087 (Simulation time: 0 hr 5 min 2 sec) 
Heartbeat CPU  0 instructions:  169000002 cycles:  144761935 heartbeat IPC: 0.84519 cumulative IPC: 0.89017 (Simulation time: 0 hr 5 min 3 sec) 
Heartbeat CPU  0 instructions:  170000003 cycles:  145954599 heartbeat IPC: 0.83846 cumulative IPC: 0.88939 (Simulation time: 0 hr 5 min 5 sec) 
Heartbeat CPU  0 instructions:  171000000 cycles:  147161724 heartbeat IPC: 0.82841 cumulative IPC: 0.88847 (Simulation time: 0 hr 5 min 7 sec) 
Heartbeat CPU  0 instructions:  172000000 cycles:  148329710 heartbeat IPC: 0.85617 cumulative IPC: 0.88800 (Simulation time: 0 hr 5 min 9 sec) 
Heartbeat CPU  0 instructions:  173000001 cycles:  149517079 heartbeat IPC: 0.84220 cumulative IPC: 0.88734 (Simulation time: 0 hr 5 min 10 sec) 
Heartbeat CPU  0 instructions:  174000001 cycles:  150726434 heartbeat IPC: 0.82689 cumulative IPC: 0.88647 (Simulation time: 0 hr 5 min 12 sec) 
Heartbeat CPU  0 instructions:  175000003 cycles:  151855029 heartbeat IPC: 0.88606 cumulative IPC: 0.88646 (Simulation time: 0 hr 5 min 14 sec) 
Heartbeat CPU  0 instructions:  176000000 cycles:  153066855 heartbeat IPC: 0.82520 cumulative IPC: 0.88560 (Simulation time: 0 hr 5 min 16 sec) 
Heartbeat CPU  0 instructions:  177000003 cycles:  154224263 heartbeat IPC: 0.86400 cumulative IPC: 0.88531 (Simulation time: 0 hr 5 min 17 sec) 
Heartbeat CPU  0 instructions:  178000000 cycles:  155416863 heartbeat IPC: 0.83850 cumulative IPC: 0.88468 (Simulation time: 0 hr 5 min 19 sec) 
Heartbeat CPU  0 instructions:  179000001 cycles:  156572198 heartbeat IPC: 0.86555 cumulative IPC: 0.88443 (Simulation time: 0 hr 5 min 21 sec) 
Heartbeat CPU  0 instructions:  180000000 cycles:  157797560 heartbeat IPC: 0.81608 cumulative IPC: 0.88350 (Simulation time: 0 hr 5 min 23 sec) 
Heartbeat CPU  0 instructions:  181000001 cycles:  158978328 heartbeat IPC: 0.84691 cumulative IPC: 0.88303 (Simulation time: 0 hr 5 min 24 sec) 
Heartbeat CPU  0 instructions:  182000001 cycles:  160201954 heartbeat IPC: 0.81724 cumulative IPC: 0.88217 (Simulation time: 0 hr 5 min 26 sec) 
Heartbeat CPU  0 instructions:  183000003 cycles:  161370059 heartbeat IPC: 0.85609 cumulative IPC: 0.88184 (Simulation time: 0 hr 5 min 28 sec) 
Heartbeat CPU  0 instructions:  184000000 cycles:  162593450 heartbeat IPC: 0.81740 cumulative IPC: 0.88102 (Simulation time: 0 hr 5 min 30 sec) 
Heartbeat CPU  0 instructions:  185000003 cycles:  163755519 heartbeat IPC: 0.86054 cumulative IPC: 0.88077 (Simulation time: 0 hr 5 min 31 sec) 
Heartbeat CPU  0 instructions:  186000003 cycles:  164985588 heartbeat IPC: 0.81296 cumulative IPC: 0.87992 (Simulation time: 0 hr 5 min 33 sec) 
Heartbeat CPU  0 instructions:  187000000 cycles:  166178432 heartbeat IPC: 0.83833 cumulative IPC: 0.87941 (Simulation time: 0 hr 5 min 35 sec) 
Heartbeat CPU  0 instructions:  188000000 cycles:  167394219 heartbeat IPC: 0.82251 cumulative IPC: 0.87872 (Simulation time: 0 hr 5 min 37 sec) 
Heartbeat CPU  0 instructions:  189000001 cycles:  168542321 heartbeat IPC: 0.87100 cumulative IPC: 0.87864 (Simulation time: 0 hr 5 min 38 sec) 
Heartbeat CPU  0 instructions:  190000001 cycles:  169771782 heartbeat IPC: 0.81336 cumulative IPC: 0.87785 (Simulation time: 0 hr 5 min 40 sec) 
Heartbeat CPU  0 instructions:  191000002 cycles:  170960728 heartbeat IPC: 0.84108 cumulative IPC: 0.87743 (Simulation time: 0 hr 5 min 42 sec) 
Heartbeat CPU  0 instructions:  192000000 cycles:  172181071 heartbeat IPC: 0.81944 cumulative IPC: 0.87676 (Simulation time: 0 hr 5 min 44 sec) 
Heartbeat CPU  0 instructions:  193000003 cycles:  173370158 heartbeat IPC: 0.84098 cumulative IPC: 0.87636 (Simulation time: 0 hr 5 min 46 sec) 
Heartbeat CPU  0 instructions:  194000000 cycles:  174586625 heartbeat IPC: 0.82205 cumulative IPC: 0.87574 (Simulation time: 0 hr 5 min 47 sec) 
Heartbeat CPU  0 instructions:  195000000 cycles:  175744957 heartbeat IPC: 0.86331 cumulative IPC: 0.87561 (Simulation time: 0 hr 5 min 49 sec) 
Heartbeat CPU  0 instructions:  196000000 cycles:  176915151 heartbeat IPC: 0.85456 cumulative IPC: 0.87538 (Simulation time: 0 hr 5 min 51 sec) 
Heartbeat CPU  0 instructions:  197000002 cycles:  178111713 heartbeat IPC: 0.83573 cumulative IPC: 0.87496 (Simulation time: 0 hr 5 min 53 sec) 
Heartbeat CPU  0 instructions:  198000001 cycles:  179306434 heartbeat IPC: 0.83701 cumulative IPC: 0.87455 (Simulation time: 0 hr 5 min 55 sec) 
Heartbeat CPU  0 instructions:  199000002 cycles:  180326619 heartbeat IPC: 0.98022 cumulative IPC: 0.87550 (Simulation time: 0 hr 5 min 57 sec) 
Heartbeat CPU  0 instructions:  200000000 cycles:  181482085 heartbeat IPC: 0.86545 cumulative IPC: 0.87540 (Simulation time: 0 hr 5 min 58 sec) 
Finished CPU 0 instructions: 100000001 cycles: 114233099 cumulative IPC: 0.87540 (Simulation time: 0 hr 5 min 58 sec) 

ChampSim completed all CPUs

[ROI Statistics]
Core_0_instructions 100000001
Core_0_cycles 114233099
Core_0_IPC 0.87540

Core_0_branch_prediction_accuracy 99.52414
Core_0_branch_MPKI 0.08716
Core_0_average_ROB_occupancy_at_mispredict 253.77719

Core_0_L1D_total_access 32741887
Core_0_L1D_total_hit 30346414
Core_0_L1D_total_miss 2395473
Core_0_L1D_loads 26619576
Core_0_L1D_load_hit 24224128
Core_0_L1D_load_miss 2395448
Core_0_L1D_RFOs 6122311
Core_0_L1D_RFO_hit 6122286
Core_0_L1D_RFO_miss 25
Core_0_L1D_prefetches 0
Core_0_L1D_prefetch_hit 0
Core_0_L1D_prefetch_miss 0
Core_0_L1D_writebacks 0
Core_0_L1D_writeback_hit 0
Core_0_L1D_writeback_miss 0
Core_0_L1D_prefetch_requested 0
Core_0_L1D_prefetch_issued 0
Core_0_L1D_prefetch_useful 0
Core_0_L1D_prefetch_useless 0
Core_0_L1D_prefetch_late 0
Core_0_L1D_average_miss_latency 44.68747

Core_0_L1I_total_access 21086542
Core_0_L1I_total_hit 21086465
Core_0_L1I_total_miss 77
Core_0_L1I_loads 21086542
Core_0_L1I_load_hit 21086465
Core_0_L1I_load_miss 77
Core_0_L1I_RFOs 0
Core_0_L1I_RFO_hit 0
Core_0_L1I_RFO_miss 0
Core_0_L1I_prefetches 0
Core_0_L1I_prefetch_hit 0
Core_0_L1I_prefetch_miss 0
Core_0_L1I_writebacks 0
Core_0_L1I_writeback_hit 0
Core_0_L1I_writeback_miss 0
Core_0_L1I_prefetch_requested 0
Core_0_L1I_prefetch_issued 0
Core_0_L1I_prefetch_useful 0
Core_0_L1I_prefetch_useless 0
Core_0_L1I_prefetch_late 0
Core_0_L1I_average_miss_latency 215.81818

Core_0_L2C_total_access 6761629
Core_0_L2C_total_hit 4734419
Core_0_L2C_total_miss 2027210
Core_0_L2C_loads 2395523
Core_0_L2C_load_hit 1967491
Core_0_L2C_load_miss 428032
Core_0_L2C_RFOs 25
Core_0_L2C_RFO_hit 0
Core_0_L2C_RFO_miss 25
Core_0_L2C_prefetches 3685794
Core_0_L2C_prefetch_hit 2086760
Core_0_L2C_prefetch_miss 1599034
Core_0_L2C_writebacks 680287
Core_0_L2C_writeback_hit 680168
Core_0_L2C_writeback_miss 119
Core_0_L2C_prefetch_requested 6538594
Core_0_L2C_prefetch_issued 6538549
Core_0_L2C_prefetch_useful 1461962
Core_0_L2C_prefetch_useless 150764
Core_0_L2C_prefetch_late 109596
Core_0_L2C_average_miss_latency 276.83114

Core_0_LLC_total_access 3350910
Core_0_LLC_total_hit 1414271
Core_0_LLC_total_miss 1936639
Core_0_LLC_loads 318436
Core_0_LLC_load_hit 207730
Core_0_LLC_load_miss 110706
Core_0_LLC_RFOs 25
Core_0_LLC_RFO_hit 0
Core_0_LLC_RFO_miss 25
Core_0_LLC_prefetches 2356977
Core_0_LLC_prefetch_hit 550921
Core_0_LLC_prefetch_miss 1806056
Core_0_LLC_writebacks 675472
Core_0_LLC_writeback_hit 655620
Core_0_LLC_writeback_miss 19852
Core_0_LLC_prefetch_requested 2122642
Core_0_LLC_prefetch_issued 2089584
Core_0_LLC_prefetch_useful 427083
Core_0_LLC_prefetch_useless 1923816
Core_0_LLC_prefetch_late 46884
Core_0_LLC_average_miss_latency 449.10516

Core_0_major_page_fault 0
Core_0_minor_page_fault 80857

CPU 0 L2C PC-based stride prefetcher final stats
LLC Next Line Prefetcher Final Stats: none
Channel_0_RQ_row_buffer_hit 507374
Channel_0_RQ_row_buffer_miss 1409413
Channel_0_WQ_row_buffer_hit 90228
Channel_0_WQ_row_buffer_miss 573009
Channel_0_WQ_full 0
Channel_0_dbus_congested 1350089

avg_congested_cycle 10
