*************************************************
   ChampSim Multicore Out-of-Order Simulator
   Last compiled: Dec 25 2023 16:02:50
*************************************************

trace_0 ./test_trace/459.GemsFDTD-1320B.champsimtrace.xz
CPU 0 L1D next line prefetcher
CPU 0 L2C IP-based stride prefetcher
Initialize SHIP state
warmup_instructions 100000000
simulation_instructions 100000000
champsim_seed 264

num_cpus 1
cpu_freq 4000
dram_io_freq 2400
page_size 4096
block_size 64
max_read_per_cycle 8
max_fill_per_cycle 1
dram_channels 1
dram_ranks 1
dram_banks 8
dram_rows 65536
dram_columns 128
dram_row_size 8
dram_size 4096
dram_pages 1048576

fetch_width 6
decode_width 6
exec_width 4
lq_width 2
sq_width 2
retire_width 4
scheduler_size 128
branch_mispredict_penalty 20
rob_size 256
lq_size 72
sq_size 56
num_instr_destinations_sparc 4
num_instr_destinations 2
num_instr_sources 4

itlb_set 16
itlb_way 8
itlb_rq_size 16
itlb_wq_size 16
itlb_pq_size 0
itlb_mshr_size 8
itlb_latency 1

dtlb_set 16
dtlb_way 4
dtlb_rq_size 16
dtlb_wq_size 16
dtlb_pq_size 0
dtlb_mshr_size 8
dtlb_latency 1

stlb_set 128
stlb_way 12
stlb_rq_size 32
stlb_wq_size 32
stlb_pq_size 0
stlb_mshr_size 16
stlb_latency 8

l1i_size 32
l1i_set 64
l1i_way 8
l1i_rq_size 64
l1i_wq_size 64
l1i_pq_size 8
l1i_mshr_size 8
l1i_latency 1

l1d_size 32
l1d_set 64
l1d_way 8
l1d_rq_size 64
l1d_wq_size 64
l1d_pq_size 8
l1d_mshr_size 16
l1d_latency 4

l2c_size 512
l2c_set 1024
l2c_way 8
l2c_rq_size 32
l2c_wq_size 32
l2c_pq_size 16
l2c_mshr_size 32
l2c_latency 10

llc_size 2048
llc_set 2048
llc_way 16
llc_rq_size 32
llc_wq_size 32
llc_pq_size 32
llc_mshr_size 64
llc_latency 20

dram_channel_width 8
dram_wq_size 64
dram_rq_size 64
tRP 15
tRCD 15
tCAS 12.5
dram_dbus_turn_around_time 30
dram_write_high_wm 56
dram_write_low_wm 48
min_dram_writes_per_switch 16
dram_mtps 2400
dram_dbus_return_time 13


Heartbeat CPU  0 instructions:    1000000 cycles:     673312 heartbeat IPC: 1.48520 cumulative IPC: 1.48520 (Simulation time: 0 hr 0 min 2 sec) 
Heartbeat CPU  0 instructions:    2000003 cycles:    1345958 heartbeat IPC: 1.48667 cumulative IPC: 1.48593 (Simulation time: 0 hr 0 min 4 sec) 
Heartbeat CPU  0 instructions:    3000002 cycles:    2018519 heartbeat IPC: 1.48685 cumulative IPC: 1.48624 (Simulation time: 0 hr 0 min 6 sec) 
Heartbeat CPU  0 instructions:    4000000 cycles:    2691246 heartbeat IPC: 1.48648 cumulative IPC: 1.48630 (Simulation time: 0 hr 0 min 8 sec) 
Heartbeat CPU  0 instructions:    5000001 cycles:    3364101 heartbeat IPC: 1.48621 cumulative IPC: 1.48628 (Simulation time: 0 hr 0 min 10 sec) 
Heartbeat CPU  0 instructions:    6000001 cycles:    4036378 heartbeat IPC: 1.48748 cumulative IPC: 1.48648 (Simulation time: 0 hr 0 min 12 sec) 
Heartbeat CPU  0 instructions:    7000001 cycles:    4708751 heartbeat IPC: 1.48727 cumulative IPC: 1.48659 (Simulation time: 0 hr 0 min 14 sec) 
Heartbeat CPU  0 instructions:    8000000 cycles:    5381274 heartbeat IPC: 1.48694 cumulative IPC: 1.48664 (Simulation time: 0 hr 0 min 16 sec) 
Heartbeat CPU  0 instructions:    9000003 cycles:    6053965 heartbeat IPC: 1.48657 cumulative IPC: 1.48663 (Simulation time: 0 hr 0 min 18 sec) 
Heartbeat CPU  0 instructions:   10000003 cycles:    6726557 heartbeat IPC: 1.48679 cumulative IPC: 1.48665 (Simulation time: 0 hr 0 min 20 sec) 
Heartbeat CPU  0 instructions:   11000003 cycles:    7399141 heartbeat IPC: 1.48680 cumulative IPC: 1.48666 (Simulation time: 0 hr 0 min 22 sec) 
Heartbeat CPU  0 instructions:   12000000 cycles:    8071517 heartbeat IPC: 1.48726 cumulative IPC: 1.48671 (Simulation time: 0 hr 0 min 24 sec) 
Heartbeat CPU  0 instructions:   13000000 cycles:    8749112 heartbeat IPC: 1.47581 cumulative IPC: 1.48587 (Simulation time: 0 hr 0 min 26 sec) 
Heartbeat CPU  0 instructions:   14000002 cycles:    9428021 heartbeat IPC: 1.47295 cumulative IPC: 1.48494 (Simulation time: 0 hr 0 min 27 sec) 
Heartbeat CPU  0 instructions:   15000000 cycles:   10107073 heartbeat IPC: 1.47264 cumulative IPC: 1.48411 (Simulation time: 0 hr 0 min 29 sec) 
Heartbeat CPU  0 instructions:   16000000 cycles:   10786090 heartbeat IPC: 1.47272 cumulative IPC: 1.48339 (Simulation time: 0 hr 0 min 31 sec) 
Heartbeat CPU  0 instructions:   17000002 cycles:   11465195 heartbeat IPC: 1.47253 cumulative IPC: 1.48275 (Simulation time: 0 hr 0 min 33 sec) 
Heartbeat CPU  0 instructions:   18000003 cycles:   12144170 heartbeat IPC: 1.47281 cumulative IPC: 1.48219 (Simulation time: 0 hr 0 min 35 sec) 
Heartbeat CPU  0 instructions:   19000003 cycles:   12823141 heartbeat IPC: 1.47282 cumulative IPC: 1.48170 (Simulation time: 0 hr 0 min 37 sec) 
Heartbeat CPU  0 instructions:   20000000 cycles:   13502220 heartbeat IPC: 1.47258 cumulative IPC: 1.48124 (Simulation time: 0 hr 0 min 39 sec) 
Heartbeat CPU  0 instructions:   21000002 cycles:   14181278 heartbeat IPC: 1.47263 cumulative IPC: 1.48083 (Simulation time: 0 hr 0 min 40 sec) 
Heartbeat CPU  0 instructions:   22000000 cycles:   14860292 heartbeat IPC: 1.47272 cumulative IPC: 1.48046 (Simulation time: 0 hr 0 min 42 sec) 
Heartbeat CPU  0 instructions:   23000000 cycles:   15539299 heartbeat IPC: 1.47274 cumulative IPC: 1.48012 (Simulation time: 0 hr 0 min 44 sec) 
Heartbeat CPU  0 instructions:   24000000 cycles:   16218314 heartbeat IPC: 1.47272 cumulative IPC: 1.47981 (Simulation time: 0 hr 0 min 46 sec) 
Heartbeat CPU  0 instructions:   25000001 cycles:   16897460 heartbeat IPC: 1.47244 cumulative IPC: 1.47951 (Simulation time: 0 hr 0 min 48 sec) 
Heartbeat CPU  0 instructions:   26000001 cycles:   17576515 heartbeat IPC: 1.47263 cumulative IPC: 1.47925 (Simulation time: 0 hr 0 min 50 sec) 
Heartbeat CPU  0 instructions:   27000001 cycles:   18255488 heartbeat IPC: 1.47281 cumulative IPC: 1.47901 (Simulation time: 0 hr 0 min 52 sec) 
Heartbeat CPU  0 instructions:   28000000 cycles:   18933804 heartbeat IPC: 1.47424 cumulative IPC: 1.47884 (Simulation time: 0 hr 0 min 54 sec) 
Heartbeat CPU  0 instructions:   29000002 cycles:   19610434 heartbeat IPC: 1.47792 cumulative IPC: 1.47880 (Simulation time: 0 hr 0 min 55 sec) 
Heartbeat CPU  0 instructions:   30000000 cycles:   20287073 heartbeat IPC: 1.47789 cumulative IPC: 1.47877 (Simulation time: 0 hr 0 min 57 sec) 
Heartbeat CPU  0 instructions:   31000000 cycles:   20963619 heartbeat IPC: 1.47810 cumulative IPC: 1.47875 (Simulation time: 0 hr 0 min 59 sec) 
Heartbeat CPU  0 instructions:   32000000 cycles:   21640177 heartbeat IPC: 1.47807 cumulative IPC: 1.47873 (Simulation time: 0 hr 1 min 1 sec) 
Heartbeat CPU  0 instructions:   33000002 cycles:   22316946 heartbeat IPC: 1.47761 cumulative IPC: 1.47870 (Simulation time: 0 hr 1 min 3 sec) 
Heartbeat CPU  0 instructions:   34000000 cycles:   22993509 heartbeat IPC: 1.47806 cumulative IPC: 1.47868 (Simulation time: 0 hr 1 min 5 sec) 
Heartbeat CPU  0 instructions:   35000002 cycles:   23670188 heartbeat IPC: 1.47781 cumulative IPC: 1.47865 (Simulation time: 0 hr 1 min 7 sec) 
Heartbeat CPU  0 instructions:   36000000 cycles:   24346751 heartbeat IPC: 1.47806 cumulative IPC: 1.47864 (Simulation time: 0 hr 1 min 9 sec) 
Heartbeat CPU  0 instructions:   37000000 cycles:   25023524 heartbeat IPC: 1.47760 cumulative IPC: 1.47861 (Simulation time: 0 hr 1 min 10 sec) 
Heartbeat CPU  0 instructions:   38000000 cycles:   25700146 heartbeat IPC: 1.47793 cumulative IPC: 1.47859 (Simulation time: 0 hr 1 min 12 sec) 
Heartbeat CPU  0 instructions:   39000002 cycles:   26376854 heartbeat IPC: 1.47775 cumulative IPC: 1.47857 (Simulation time: 0 hr 1 min 14 sec) 
Heartbeat CPU  0 instructions:   40000000 cycles:   27053610 heartbeat IPC: 1.47763 cumulative IPC: 1.47855 (Simulation time: 0 hr 1 min 16 sec) 
Heartbeat CPU  0 instructions:   41000000 cycles:   27730434 heartbeat IPC: 1.47749 cumulative IPC: 1.47852 (Simulation time: 0 hr 1 min 18 sec) 
Heartbeat CPU  0 instructions:   42000002 cycles:   28407075 heartbeat IPC: 1.47789 cumulative IPC: 1.47851 (Simulation time: 0 hr 1 min 20 sec) 
Heartbeat CPU  0 instructions:   43000002 cycles:   29083679 heartbeat IPC: 1.47797 cumulative IPC: 1.47849 (Simulation time: 0 hr 1 min 22 sec) 
Heartbeat CPU  0 instructions:   44000000 cycles:   29750066 heartbeat IPC: 1.50063 cumulative IPC: 1.47899 (Simulation time: 0 hr 1 min 24 sec) 
Heartbeat CPU  0 instructions:   45000003 cycles:   30416356 heartbeat IPC: 1.50085 cumulative IPC: 1.47947 (Simulation time: 0 hr 1 min 26 sec) 
Heartbeat CPU  0 instructions:   46000001 cycles:   31082334 heartbeat IPC: 1.50155 cumulative IPC: 1.47994 (Simulation time: 0 hr 1 min 28 sec) 
Heartbeat CPU  0 instructions:   47000000 cycles:   31748323 heartbeat IPC: 1.50152 cumulative IPC: 1.48039 (Simulation time: 0 hr 1 min 29 sec) 
Heartbeat CPU  0 instructions:   48000000 cycles:   32414267 heartbeat IPC: 1.50163 cumulative IPC: 1.48083 (Simulation time: 0 hr 1 min 31 sec) 
Heartbeat CPU  0 instructions:   49000000 cycles:   33080219 heartbeat IPC: 1.50161 cumulative IPC: 1.48125 (Simulation time: 0 hr 1 min 33 sec) 
Heartbeat CPU  0 instructions:   50000003 cycles:   33746383 heartbeat IPC: 1.50114 cumulative IPC: 1.48164 (Simulation time: 0 hr 1 min 35 sec) 
Heartbeat CPU  0 instructions:   51000003 cycles:   34412441 heartbeat IPC: 1.50137 cumulative IPC: 1.48202 (Simulation time: 0 hr 1 min 37 sec) 
Heartbeat CPU  0 instructions:   52000000 cycles:   35078563 heartbeat IPC: 1.50122 cumulative IPC: 1.48239 (Simulation time: 0 hr 1 min 39 sec) 
Heartbeat CPU  0 instructions:   53000003 cycles:   35744503 heartbeat IPC: 1.50164 cumulative IPC: 1.48275 (Simulation time: 0 hr 1 min 41 sec) 
Heartbeat CPU  0 instructions:   54000000 cycles:   36410270 heartbeat IPC: 1.50202 cumulative IPC: 1.48310 (Simulation time: 0 hr 1 min 43 sec) 
Heartbeat CPU  0 instructions:   55000000 cycles:   37076418 heartbeat IPC: 1.50117 cumulative IPC: 1.48342 (Simulation time: 0 hr 1 min 45 sec) 
Heartbeat CPU  0 instructions:   56000000 cycles:   37737958 heartbeat IPC: 1.51162 cumulative IPC: 1.48392 (Simulation time: 0 hr 1 min 47 sec) 
Heartbeat CPU  0 instructions:   57000003 cycles:   38398955 heartbeat IPC: 1.51287 cumulative IPC: 1.48442 (Simulation time: 0 hr 1 min 49 sec) 
Heartbeat CPU  0 instructions:   58000000 cycles:   39060161 heartbeat IPC: 1.51238 cumulative IPC: 1.48489 (Simulation time: 0 hr 1 min 51 sec) 
Heartbeat CPU  0 instructions:   59000000 cycles:   39721155 heartbeat IPC: 1.51287 cumulative IPC: 1.48535 (Simulation time: 0 hr 1 min 53 sec) 
Heartbeat CPU  0 instructions:   60000000 cycles:   40382116 heartbeat IPC: 1.51295 cumulative IPC: 1.48581 (Simulation time: 0 hr 1 min 55 sec) 
Heartbeat CPU  0 instructions:   61000001 cycles:   41043671 heartbeat IPC: 1.51159 cumulative IPC: 1.48622 (Simulation time: 0 hr 1 min 57 sec) 
Heartbeat CPU  0 instructions:   62000000 cycles:   41704791 heartbeat IPC: 1.51258 cumulative IPC: 1.48664 (Simulation time: 0 hr 1 min 59 sec) 
Heartbeat CPU  0 instructions:   63000001 cycles:   42365917 heartbeat IPC: 1.51257 cumulative IPC: 1.48704 (Simulation time: 0 hr 2 min 1 sec) 
Heartbeat CPU  0 instructions:   64000000 cycles:   43026999 heartbeat IPC: 1.51267 cumulative IPC: 1.48744 (Simulation time: 0 hr 2 min 3 sec) 
Heartbeat CPU  0 instructions:   65000003 cycles:   43688123 heartbeat IPC: 1.51258 cumulative IPC: 1.48782 (Simulation time: 0 hr 2 min 5 sec) 
Heartbeat CPU  0 instructions:   66000000 cycles:   44349162 heartbeat IPC: 1.51277 cumulative IPC: 1.48819 (Simulation time: 0 hr 2 min 7 sec) 
Heartbeat CPU  0 instructions:   67000000 cycles:   45010475 heartbeat IPC: 1.51214 cumulative IPC: 1.48854 (Simulation time: 0 hr 2 min 9 sec) 
Heartbeat CPU  0 instructions:   68000000 cycles:   45680593 heartbeat IPC: 1.49227 cumulative IPC: 1.48860 (Simulation time: 0 hr 2 min 11 sec) 
Heartbeat CPU  0 instructions:   69000002 cycles:   46351309 heartbeat IPC: 1.49095 cumulative IPC: 1.48863 (Simulation time: 0 hr 2 min 12 sec) 
Heartbeat CPU  0 instructions:   70000001 cycles:   47022390 heartbeat IPC: 1.49013 cumulative IPC: 1.48865 (Simulation time: 0 hr 2 min 14 sec) 
Heartbeat CPU  0 instructions:   71000002 cycles:   47693083 heartbeat IPC: 1.49100 cumulative IPC: 1.48869 (Simulation time: 0 hr 2 min 16 sec) 
Heartbeat CPU  0 instructions:   72000000 cycles:   48364031 heartbeat IPC: 1.49043 cumulative IPC: 1.48871 (Simulation time: 0 hr 2 min 18 sec) 
Heartbeat CPU  0 instructions:   73000000 cycles:   49034876 heartbeat IPC: 1.49066 cumulative IPC: 1.48874 (Simulation time: 0 hr 2 min 20 sec) 
Heartbeat CPU  0 instructions:   74000000 cycles:   49705608 heartbeat IPC: 1.49091 cumulative IPC: 1.48877 (Simulation time: 0 hr 2 min 22 sec) 
Heartbeat CPU  0 instructions:   75000001 cycles:   50376572 heartbeat IPC: 1.49039 cumulative IPC: 1.48879 (Simulation time: 0 hr 2 min 24 sec) 
Heartbeat CPU  0 instructions:   76000000 cycles:   51047078 heartbeat IPC: 1.49141 cumulative IPC: 1.48882 (Simulation time: 0 hr 2 min 26 sec) 
Heartbeat CPU  0 instructions:   77000000 cycles:   51718055 heartbeat IPC: 1.49036 cumulative IPC: 1.48884 (Simulation time: 0 hr 2 min 28 sec) 
Heartbeat CPU  0 instructions:   78000003 cycles:   52388866 heartbeat IPC: 1.49074 cumulative IPC: 1.48887 (Simulation time: 0 hr 2 min 30 sec) 
Heartbeat CPU  0 instructions:   79000002 cycles:   53059514 heartbeat IPC: 1.49109 cumulative IPC: 1.48889 (Simulation time: 0 hr 2 min 32 sec) 
Heartbeat CPU  0 instructions:   80000000 cycles:   53732705 heartbeat IPC: 1.48546 cumulative IPC: 1.48885 (Simulation time: 0 hr 2 min 34 sec) 
Heartbeat CPU  0 instructions:   81000003 cycles:   54406779 heartbeat IPC: 1.48352 cumulative IPC: 1.48879 (Simulation time: 0 hr 2 min 36 sec) 
Heartbeat CPU  0 instructions:   82000001 cycles:   55080541 heartbeat IPC: 1.48420 cumulative IPC: 1.48873 (Simulation time: 0 hr 2 min 38 sec) 
Heartbeat CPU  0 instructions:   83000002 cycles:   55754507 heartbeat IPC: 1.48376 cumulative IPC: 1.48867 (Simulation time: 0 hr 2 min 40 sec) 
Heartbeat CPU  0 instructions:   84000000 cycles:   56427955 heartbeat IPC: 1.48489 cumulative IPC: 1.48862 (Simulation time: 0 hr 2 min 42 sec) 
Heartbeat CPU  0 instructions:   85000000 cycles:   57101828 heartbeat IPC: 1.48396 cumulative IPC: 1.48857 (Simulation time: 0 hr 2 min 44 sec) 
Heartbeat CPU  0 instructions:   86000001 cycles:   57775592 heartbeat IPC: 1.48420 cumulative IPC: 1.48852 (Simulation time: 0 hr 2 min 46 sec) 
Heartbeat CPU  0 instructions:   87000000 cycles:   58449361 heartbeat IPC: 1.48419 cumulative IPC: 1.48847 (Simulation time: 0 hr 2 min 48 sec) 
Heartbeat CPU  0 instructions:   88000000 cycles:   59123394 heartbeat IPC: 1.48361 cumulative IPC: 1.48841 (Simulation time: 0 hr 2 min 49 sec) 
Heartbeat CPU  0 instructions:   89000002 cycles:   59797255 heartbeat IPC: 1.48399 cumulative IPC: 1.48836 (Simulation time: 0 hr 2 min 51 sec) 
Heartbeat CPU  0 instructions:   90000001 cycles:   60470591 heartbeat IPC: 1.48514 cumulative IPC: 1.48833 (Simulation time: 0 hr 2 min 53 sec) 
Heartbeat CPU  0 instructions:   91000000 cycles:   61144155 heartbeat IPC: 1.48464 cumulative IPC: 1.48829 (Simulation time: 0 hr 2 min 55 sec) 
Heartbeat CPU  0 instructions:   92000000 cycles:   61820761 heartbeat IPC: 1.47796 cumulative IPC: 1.48817 (Simulation time: 0 hr 2 min 57 sec) 
Heartbeat CPU  0 instructions:   93000001 cycles:   62499822 heartbeat IPC: 1.47262 cumulative IPC: 1.48800 (Simulation time: 0 hr 2 min 59 sec) 
Heartbeat CPU  0 instructions:   94000001 cycles:   63178770 heartbeat IPC: 1.47287 cumulative IPC: 1.48784 (Simulation time: 0 hr 3 min 1 sec) 
Heartbeat CPU  0 instructions:   95000001 cycles:   63857872 heartbeat IPC: 1.47253 cumulative IPC: 1.48768 (Simulation time: 0 hr 3 min 3 sec) 
Heartbeat CPU  0 instructions:   96000000 cycles:   64536924 heartbeat IPC: 1.47264 cumulative IPC: 1.48752 (Simulation time: 0 hr 3 min 4 sec) 
Heartbeat CPU  0 instructions:   97000000 cycles:   65216003 heartbeat IPC: 1.47258 cumulative IPC: 1.48737 (Simulation time: 0 hr 3 min 6 sec) 
Heartbeat CPU  0 instructions:   98000000 cycles:   65895046 heartbeat IPC: 1.47266 cumulative IPC: 1.48721 (Simulation time: 0 hr 3 min 8 sec) 
Heartbeat CPU  0 instructions:   99000000 cycles:   66574066 heartbeat IPC: 1.47271 cumulative IPC: 1.48707 (Simulation time: 0 hr 3 min 10 sec) 
Heartbeat CPU  0 instructions:  100000000 cycles:   67253137 heartbeat IPC: 1.47260 cumulative IPC: 1.48692 (Simulation time: 0 hr 3 min 12 sec) 

Warmup complete CPU  0 instructions:  100000001 cycles:   67253138 (Simulation time: 0 hr 3 min 12 sec) 

Heartbeat CPU  0 instructions:  101000000 cycles:   68393165 heartbeat IPC: 0.87717 cumulative IPC: 0.87717 (Simulation time: 0 hr 3 min 14 sec) 
Heartbeat CPU  0 instructions:  102000002 cycles:   69529961 heartbeat IPC: 0.87967 cumulative IPC: 0.87842 (Simulation time: 0 hr 3 min 16 sec) 
Heartbeat CPU  0 instructions:  103000001 cycles:   70668639 heartbeat IPC: 0.87821 cumulative IPC: 0.87835 (Simulation time: 0 hr 3 min 18 sec) 
Heartbeat CPU  0 instructions:  104000000 cycles:   71812715 heartbeat IPC: 0.87407 cumulative IPC: 0.87727 (Simulation time: 0 hr 3 min 20 sec) 
Heartbeat CPU  0 instructions:  105000001 cycles:   72970512 heartbeat IPC: 0.86371 cumulative IPC: 0.87453 (Simulation time: 0 hr 3 min 23 sec) 
Heartbeat CPU  0 instructions:  106000001 cycles:   74123843 heartbeat IPC: 0.86705 cumulative IPC: 0.87327 (Simulation time: 0 hr 3 min 25 sec) 
Heartbeat CPU  0 instructions:  107000002 cycles:   75514836 heartbeat IPC: 0.71891 cumulative IPC: 0.84728 (Simulation time: 0 hr 3 min 27 sec) 
Heartbeat CPU  0 instructions:  108000000 cycles:   76715863 heartbeat IPC: 0.83262 cumulative IPC: 0.84542 (Simulation time: 0 hr 3 min 29 sec) 
Heartbeat CPU  0 instructions:  109000000 cycles:   77892686 heartbeat IPC: 0.84975 cumulative IPC: 0.84590 (Simulation time: 0 hr 3 min 31 sec) 
Heartbeat CPU  0 instructions:  110000002 cycles:   79039806 heartbeat IPC: 0.87175 cumulative IPC: 0.84842 (Simulation time: 0 hr 3 min 33 sec) 
Heartbeat CPU  0 instructions:  111000000 cycles:   80185871 heartbeat IPC: 0.87255 cumulative IPC: 0.85055 (Simulation time: 0 hr 3 min 36 sec) 
Heartbeat CPU  0 instructions:  112000000 cycles:   81333713 heartbeat IPC: 0.87120 cumulative IPC: 0.85224 (Simulation time: 0 hr 3 min 38 sec) 
Heartbeat CPU  0 instructions:  113000000 cycles:   82482279 heartbeat IPC: 0.87065 cumulative IPC: 0.85363 (Simulation time: 0 hr 3 min 40 sec) 
Heartbeat CPU  0 instructions:  114000002 cycles:   83628893 heartbeat IPC: 0.87213 cumulative IPC: 0.85492 (Simulation time: 0 hr 3 min 42 sec) 
Heartbeat CPU  0 instructions:  115000002 cycles:   84776261 heartbeat IPC: 0.87156 cumulative IPC: 0.85601 (Simulation time: 0 hr 3 min 44 sec) 
Heartbeat CPU  0 instructions:  116000000 cycles:   85924844 heartbeat IPC: 0.87064 cumulative IPC: 0.85691 (Simulation time: 0 hr 3 min 46 sec) 
Heartbeat CPU  0 instructions:  117000002 cycles:   87073870 heartbeat IPC: 0.87030 cumulative IPC: 0.85769 (Simulation time: 0 hr 3 min 48 sec) 
Heartbeat CPU  0 instructions:  118000000 cycles:   88217952 heartbeat IPC: 0.87406 cumulative IPC: 0.85858 (Simulation time: 0 hr 3 min 50 sec) 
Heartbeat CPU  0 instructions:  119000000 cycles:   89365942 heartbeat IPC: 0.87109 cumulative IPC: 0.85923 (Simulation time: 0 hr 3 min 53 sec) 
Heartbeat CPU  0 instructions:  120000000 cycles:   90510051 heartbeat IPC: 0.87404 cumulative IPC: 0.85996 (Simulation time: 0 hr 3 min 55 sec) 
Heartbeat CPU  0 instructions:  121000002 cycles:   91658908 heartbeat IPC: 0.87043 cumulative IPC: 0.86045 (Simulation time: 0 hr 3 min 57 sec) 
Heartbeat CPU  0 instructions:  122000002 cycles:   92802744 heartbeat IPC: 0.87425 cumulative IPC: 0.86107 (Simulation time: 0 hr 3 min 59 sec) 
Heartbeat CPU  0 instructions:  123000003 cycles:   93628240 heartbeat IPC: 1.21139 cumulative IPC: 0.87203 (Simulation time: 0 hr 4 min 1 sec) 
Heartbeat CPU  0 instructions:  124000000 cycles:   94435752 heartbeat IPC: 1.23837 cumulative IPC: 0.88292 (Simulation time: 0 hr 4 min 2 sec) 
Heartbeat CPU  0 instructions:  125000000 cycles:   95246912 heartbeat IPC: 1.23280 cumulative IPC: 0.89306 (Simulation time: 0 hr 4 min 4 sec) 
Heartbeat CPU  0 instructions:  126000000 cycles:   96161130 heartbeat IPC: 1.09383 cumulative IPC: 0.89941 (Simulation time: 0 hr 4 min 6 sec) 
Heartbeat CPU  0 instructions:  127000001 cycles:   97216798 heartbeat IPC: 0.94727 cumulative IPC: 0.90109 (Simulation time: 0 hr 4 min 7 sec) 
Heartbeat CPU  0 instructions:  128000000 cycles:   98250592 heartbeat IPC: 0.96731 cumulative IPC: 0.90330 (Simulation time: 0 hr 4 min 9 sec) 
Heartbeat CPU  0 instructions:  129000002 cycles:   99335934 heartbeat IPC: 0.92137 cumulative IPC: 0.90391 (Simulation time: 0 hr 4 min 11 sec) 
Heartbeat CPU  0 instructions:  130000002 cycles:  100410551 heartbeat IPC: 0.93056 cumulative IPC: 0.90478 (Simulation time: 0 hr 4 min 12 sec) 
Heartbeat CPU  0 instructions:  131000003 cycles:  101474826 heartbeat IPC: 0.93961 cumulative IPC: 0.90586 (Simulation time: 0 hr 4 min 14 sec) 
Heartbeat CPU  0 instructions:  132000000 cycles:  102521557 heartbeat IPC: 0.95535 cumulative IPC: 0.90733 (Simulation time: 0 hr 4 min 16 sec) 
Heartbeat CPU  0 instructions:  133000000 cycles:  103577190 heartbeat IPC: 0.94730 cumulative IPC: 0.90849 (Simulation time: 0 hr 4 min 18 sec) 
Heartbeat CPU  0 instructions:  134000001 cycles:  104653482 heartbeat IPC: 0.92912 cumulative IPC: 0.90908 (Simulation time: 0 hr 4 min 19 sec) 
Heartbeat CPU  0 instructions:  135000001 cycles:  105721283 heartbeat IPC: 0.93650 cumulative IPC: 0.90984 (Simulation time: 0 hr 4 min 21 sec) 
Heartbeat CPU  0 instructions:  136000000 cycles:  106792726 heartbeat IPC: 0.93332 cumulative IPC: 0.91048 (Simulation time: 0 hr 4 min 23 sec) 
Heartbeat CPU  0 instructions:  137000002 cycles:  107850016 heartbeat IPC: 0.94582 cumulative IPC: 0.91140 (Simulation time: 0 hr 4 min 24 sec) 
Heartbeat CPU  0 instructions:  138000003 cycles:  108934226 heartbeat IPC: 0.92233 cumulative IPC: 0.91168 (Simulation time: 0 hr 4 min 26 sec) 
Heartbeat CPU  0 instructions:  139000003 cycles:  109971888 heartbeat IPC: 0.96370 cumulative IPC: 0.91295 (Simulation time: 0 hr 4 min 28 sec) 
Heartbeat CPU  0 instructions:  140000000 cycles:  111065236 heartbeat IPC: 0.91462 cumulative IPC: 0.91299 (Simulation time: 0 hr 4 min 29 sec) 
Heartbeat CPU  0 instructions:  141000000 cycles:  112112178 heartbeat IPC: 0.95516 cumulative IPC: 0.91397 (Simulation time: 0 hr 4 min 31 sec) 
Heartbeat CPU  0 instructions:  142000001 cycles:  113152944 heartbeat IPC: 0.96083 cumulative IPC: 0.91504 (Simulation time: 0 hr 4 min 33 sec) 
Heartbeat CPU  0 instructions:  143000002 cycles:  114207718 heartbeat IPC: 0.94807 cumulative IPC: 0.91578 (Simulation time: 0 hr 4 min 35 sec) 
Heartbeat CPU  0 instructions:  144000000 cycles:  115285177 heartbeat IPC: 0.92811 cumulative IPC: 0.91606 (Simulation time: 0 hr 4 min 36 sec) 
Heartbeat CPU  0 instructions:  145000002 cycles:  116349601 heartbeat IPC: 0.93948 cumulative IPC: 0.91656 (Simulation time: 0 hr 4 min 38 sec) 
Heartbeat CPU  0 instructions:  146000003 cycles:  117394654 heartbeat IPC: 0.95689 cumulative IPC: 0.91740 (Simulation time: 0 hr 4 min 40 sec) 
Heartbeat CPU  0 instructions:  147000003 cycles:  118454928 heartbeat IPC: 0.94315 cumulative IPC: 0.91794 (Simulation time: 0 hr 4 min 41 sec) 
Heartbeat CPU  0 instructions:  148000000 cycles:  119576088 heartbeat IPC: 0.89193 cumulative IPC: 0.91738 (Simulation time: 0 hr 4 min 43 sec) 
Heartbeat CPU  0 instructions:  149000000 cycles:  120794889 heartbeat IPC: 0.82048 cumulative IPC: 0.91517 (Simulation time: 0 hr 4 min 45 sec) 
Heartbeat CPU  0 instructions:  150000001 cycles:  122029094 heartbeat IPC: 0.81024 cumulative IPC: 0.91281 (Simulation time: 0 hr 4 min 47 sec) 
Heartbeat CPU  0 instructions:  151000001 cycles:  123304931 heartbeat IPC: 0.78380 cumulative IPC: 0.90987 (Simulation time: 0 hr 4 min 48 sec) 
Heartbeat CPU  0 instructions:  152000000 cycles:  124523303 heartbeat IPC: 0.82077 cumulative IPC: 0.90798 (Simulation time: 0 hr 4 min 50 sec) 
Heartbeat CPU  0 instructions:  153000002 cycles:  125775004 heartbeat IPC: 0.79891 cumulative IPC: 0.90564 (Simulation time: 0 hr 4 min 52 sec) 
Heartbeat CPU  0 instructions:  154000003 cycles:  126993745 heartbeat IPC: 0.82052 cumulative IPC: 0.90391 (Simulation time: 0 hr 4 min 54 sec) 
Heartbeat CPU  0 instructions:  155000003 cycles:  128241433 heartbeat IPC: 0.80148 cumulative IPC: 0.90181 (Simulation time: 0 hr 4 min 55 sec) 
Heartbeat CPU  0 instructions:  156000000 cycles:  129467519 heartbeat IPC: 0.81560 cumulative IPC: 0.90011 (Simulation time: 0 hr 4 min 57 sec) 
Heartbeat CPU  0 instructions:  157000001 cycles:  130736126 heartbeat IPC: 0.78827 cumulative IPC: 0.89788 (Simulation time: 0 hr 4 min 59 sec) 
Heartbeat CPU  0 instructions:  158000001 cycles:  131962251 heartbeat IPC: 0.81558 cumulative IPC: 0.89632 (Simulation time: 0 hr 5 min 1 sec) 
Heartbeat CPU  0 instructions:  159000001 cycles:  133242639 heartbeat IPC: 0.78101 cumulative IPC: 0.89408 (Simulation time: 0 hr 5 min 3 sec) 
Heartbeat CPU  0 instructions:  160000000 cycles:  134474861 heartbeat IPC: 0.81154 cumulative IPC: 0.89257 (Simulation time: 0 hr 5 min 4 sec) 
Heartbeat CPU  0 instructions:  161000002 cycles:  135714724 heartbeat IPC: 0.80654 cumulative IPC: 0.89101 (Simulation time: 0 hr 5 min 6 sec) 
Heartbeat CPU  0 instructions:  162000002 cycles:  136930829 heartbeat IPC: 0.82230 cumulative IPC: 0.88981 (Simulation time: 0 hr 5 min 8 sec) 
Heartbeat CPU  0 instructions:  163000003 cycles:  138199921 heartbeat IPC: 0.78797 cumulative IPC: 0.88799 (Simulation time: 0 hr 5 min 10 sec) 
Heartbeat CPU  0 instructions:  164000000 cycles:  139448463 heartbeat IPC: 0.80093 cumulative IPC: 0.88648 (Simulation time: 0 hr 5 min 11 sec) 
Heartbeat CPU  0 instructions:  165000000 cycles:  140712354 heartbeat IPC: 0.79121 cumulative IPC: 0.88484 (Simulation time: 0 hr 5 min 13 sec) 
Heartbeat CPU  0 instructions:  166000001 cycles:  141928085 heartbeat IPC: 0.82255 cumulative IPC: 0.88383 (Simulation time: 0 hr 5 min 15 sec) 
Heartbeat CPU  0 instructions:  167000001 cycles:  143207028 heartbeat IPC: 0.78190 cumulative IPC: 0.88211 (Simulation time: 0 hr 5 min 17 sec) 
Heartbeat CPU  0 instructions:  168000000 cycles:  144445806 heartbeat IPC: 0.80725 cumulative IPC: 0.88091 (Simulation time: 0 hr 5 min 18 sec) 
Heartbeat CPU  0 instructions:  169000002 cycles:  145703108 heartbeat IPC: 0.79536 cumulative IPC: 0.87954 (Simulation time: 0 hr 5 min 20 sec) 
Heartbeat CPU  0 instructions:  170000003 cycles:  146903754 heartbeat IPC: 0.83289 cumulative IPC: 0.87884 (Simulation time: 0 hr 5 min 22 sec) 
Heartbeat CPU  0 instructions:  171000000 cycles:  148172350 heartbeat IPC: 0.78827 cumulative IPC: 0.87742 (Simulation time: 0 hr 5 min 24 sec) 
Heartbeat CPU  0 instructions:  172000000 cycles:  149374370 heartbeat IPC: 0.83193 cumulative IPC: 0.87675 (Simulation time: 0 hr 5 min 25 sec) 
Heartbeat CPU  0 instructions:  173000002 cycles:  150573634 heartbeat IPC: 0.83385 cumulative IPC: 0.87613 (Simulation time: 0 hr 5 min 27 sec) 
Heartbeat CPU  0 instructions:  174000001 cycles:  151822569 heartbeat IPC: 0.80068 cumulative IPC: 0.87502 (Simulation time: 0 hr 5 min 29 sec) 
Heartbeat CPU  0 instructions:  175000003 cycles:  153028210 heartbeat IPC: 0.82944 cumulative IPC: 0.87438 (Simulation time: 0 hr 5 min 31 sec) 
Heartbeat CPU  0 instructions:  176000000 cycles:  154244227 heartbeat IPC: 0.82235 cumulative IPC: 0.87365 (Simulation time: 0 hr 5 min 32 sec) 
Heartbeat CPU  0 instructions:  177000003 cycles:  155427841 heartbeat IPC: 0.84487 cumulative IPC: 0.87327 (Simulation time: 0 hr 5 min 34 sec) 
Heartbeat CPU  0 instructions:  178000003 cycles:  156693509 heartbeat IPC: 0.79010 cumulative IPC: 0.87209 (Simulation time: 0 hr 5 min 36 sec) 
Heartbeat CPU  0 instructions:  179000000 cycles:  157893603 heartbeat IPC: 0.83327 cumulative IPC: 0.87158 (Simulation time: 0 hr 5 min 38 sec) 
Heartbeat CPU  0 instructions:  180000000 cycles:  159169803 heartbeat IPC: 0.78358 cumulative IPC: 0.87035 (Simulation time: 0 hr 5 min 39 sec) 
Heartbeat CPU  0 instructions:  181000001 cycles:  160416718 heartbeat IPC: 0.80198 cumulative IPC: 0.86944 (Simulation time: 0 hr 5 min 41 sec) 
Heartbeat CPU  0 instructions:  182000001 cycles:  161707865 heartbeat IPC: 0.77451 cumulative IPC: 0.86814 (Simulation time: 0 hr 5 min 43 sec) 
Heartbeat CPU  0 instructions:  183000002 cycles:  162885007 heartbeat IPC: 0.84952 cumulative IPC: 0.86791 (Simulation time: 0 hr 5 min 45 sec) 
Heartbeat CPU  0 instructions:  184000000 cycles:  164156973 heartbeat IPC: 0.78618 cumulative IPC: 0.86684 (Simulation time: 0 hr 5 min 47 sec) 
Heartbeat CPU  0 instructions:  185000003 cycles:  165401260 heartbeat IPC: 0.80368 cumulative IPC: 0.86604 (Simulation time: 0 hr 5 min 48 sec) 
Heartbeat CPU  0 instructions:  186000003 cycles:  166667631 heartbeat IPC: 0.78966 cumulative IPC: 0.86507 (Simulation time: 0 hr 5 min 50 sec) 
Heartbeat CPU  0 instructions:  187000000 cycles:  167910816 heartbeat IPC: 0.80438 cumulative IPC: 0.86432 (Simulation time: 0 hr 5 min 52 sec) 
Heartbeat CPU  0 instructions:  188000000 cycles:  169168825 heartbeat IPC: 0.79491 cumulative IPC: 0.86346 (Simulation time: 0 hr 5 min 54 sec) 
Heartbeat CPU  0 instructions:  189000001 cycles:  170368436 heartbeat IPC: 0.83360 cumulative IPC: 0.86311 (Simulation time: 0 hr 5 min 55 sec) 
Heartbeat CPU  0 instructions:  190000001 cycles:  171661244 heartbeat IPC: 0.77351 cumulative IPC: 0.86200 (Simulation time: 0 hr 5 min 57 sec) 
Heartbeat CPU  0 instructions:  191000002 cycles:  172904330 heartbeat IPC: 0.80445 cumulative IPC: 0.86132 (Simulation time: 0 hr 5 min 59 sec) 
Heartbeat CPU  0 instructions:  192000000 cycles:  174152282 heartbeat IPC: 0.80131 cumulative IPC: 0.86062 (Simulation time: 0 hr 6 min 1 sec) 
Heartbeat CPU  0 instructions:  193000003 cycles:  175349155 heartbeat IPC: 0.83551 cumulative IPC: 0.86035 (Simulation time: 0 hr 6 min 2 sec) 
Heartbeat CPU  0 instructions:  194000003 cycles:  176591009 heartbeat IPC: 0.80525 cumulative IPC: 0.85972 (Simulation time: 0 hr 6 min 4 sec) 
Heartbeat CPU  0 instructions:  195000001 cycles:  177826073 heartbeat IPC: 0.80967 cumulative IPC: 0.85916 (Simulation time: 0 hr 6 min 6 sec) 
Heartbeat CPU  0 instructions:  196000000 cycles:  179077216 heartbeat IPC: 0.79927 cumulative IPC: 0.85849 (Simulation time: 0 hr 6 min 8 sec) 
Heartbeat CPU  0 instructions:  197000001 cycles:  180282960 heartbeat IPC: 0.82936 cumulative IPC: 0.85818 (Simulation time: 0 hr 6 min 10 sec) 
Heartbeat CPU  0 instructions:  198000001 cycles:  181547063 heartbeat IPC: 0.79107 cumulative IPC: 0.85744 (Simulation time: 0 hr 6 min 12 sec) 
Heartbeat CPU  0 instructions:  199000002 cycles:  182767326 heartbeat IPC: 0.81950 cumulative IPC: 0.85704 (Simulation time: 0 hr 6 min 14 sec) 
Heartbeat CPU  0 instructions:  200000000 cycles:  183980355 heartbeat IPC: 0.82438 cumulative IPC: 0.85670 (Simulation time: 0 hr 6 min 15 sec) 
Finished CPU 0 instructions: 100000001 cycles: 116727225 cumulative IPC: 0.85670 (Simulation time: 0 hr 6 min 15 sec) 

ChampSim completed all CPUs

[ROI Statistics]
Core_0_instructions 100000001
Core_0_cycles 116727225
Core_0_IPC 0.85670

Core_0_branch_prediction_accuracy 99.52414
Core_0_branch_MPKI 0.08716
Core_0_average_ROB_occupancy_at_mispredict 253.77891

Core_0_L1D_total_access 56898229
Core_0_L1D_total_hit 53873892
Core_0_L1D_total_miss 3024337
Core_0_L1D_loads 27240524
Core_0_L1D_load_hit 26353462
Core_0_L1D_load_miss 887062
Core_0_L1D_RFOs 6122321
Core_0_L1D_RFO_hit 6122300
Core_0_L1D_RFO_miss 21
Core_0_L1D_prefetches 23535384
Core_0_L1D_prefetch_hit 21398130
Core_0_L1D_prefetch_miss 2137254
Core_0_L1D_writebacks 0
Core_0_L1D_writeback_hit 0
Core_0_L1D_writeback_miss 0
Core_0_L1D_prefetch_requested 80530296
Core_0_L1D_prefetch_issued 70036735
Core_0_L1D_prefetch_useful 1510294
Core_0_L1D_prefetch_useless 3514158
Core_0_L1D_prefetch_late 210862
Core_0_L1D_average_miss_latency 9619376.51201

Core_0_L1I_total_access 21038379
Core_0_L1I_total_hit 21038302
Core_0_L1I_total_miss 77
Core_0_L1I_loads 21038379
Core_0_L1I_load_hit 21038302
Core_0_L1I_load_miss 77
Core_0_L1I_RFOs 0
Core_0_L1I_RFO_hit 0
Core_0_L1I_RFO_miss 0
Core_0_L1I_prefetches 0
Core_0_L1I_prefetch_hit 0
Core_0_L1I_prefetch_miss 0
Core_0_L1I_writebacks 0
Core_0_L1I_writeback_hit 0
Core_0_L1I_writeback_miss 0
Core_0_L1I_prefetch_requested 0
Core_0_L1I_prefetch_issued 0
Core_0_L1I_prefetch_useful 0
Core_0_L1I_prefetch_useless 0
Core_0_L1I_prefetch_late 0
Core_0_L1I_average_miss_latency 216.14286

Core_0_L2C_total_access 6116957
Core_0_L2C_total_hit 4031434
Core_0_L2C_total_miss 2085523
Core_0_L2C_loads 676274
Core_0_L2C_load_hit 573811
Core_0_L2C_load_miss 102463
Core_0_L2C_RFOs 21
Core_0_L2C_RFO_hit 0
Core_0_L2C_RFO_miss 21
Core_0_L2C_prefetches 4761380
Core_0_L2C_prefetch_hit 2778458
Core_0_L2C_prefetch_miss 1982922
Core_0_L2C_writebacks 679282
Core_0_L2C_writeback_hit 679165
Core_0_L2C_writeback_miss 117
Core_0_L2C_prefetch_requested 4857217
Core_0_L2C_prefetch_issued 4857066
Core_0_L2C_prefetch_useful 393717
Core_0_L2C_prefetch_useless 2350734
Core_0_L2C_prefetch_late 12287
Core_0_L2C_average_miss_latency 393.84052

Core_0_LLC_total_access 2870163
Core_0_LLC_total_hit 358518
Core_0_LLC_total_miss 2511645
Core_0_LLC_loads 90176
Core_0_LLC_load_hit 38855
Core_0_LLC_load_miss 51321
Core_0_LLC_RFOs 21
Core_0_LLC_RFO_hit 0
Core_0_LLC_RFO_miss 21
Core_0_LLC_prefetches 2104515
Core_0_LLC_prefetch_hit 215394
Core_0_LLC_prefetch_miss 1889121
Core_0_LLC_writebacks 675451
Core_0_LLC_writeback_hit 104269
Core_0_LLC_writeback_miss 571182
Core_0_LLC_prefetch_requested 0
Core_0_LLC_prefetch_issued 0
Core_0_LLC_prefetch_useful 56739
Core_0_LLC_prefetch_useless 2359565
Core_0_LLC_prefetch_late 541
Core_0_LLC_average_miss_latency 330.05074

Core_0_major_page_fault 0
Core_0_minor_page_fault 80857

CPU 0 L1D next line prefetcher final stats
CPU 0 L2C PC-based stride prefetcher final stats
Channel_0_RQ_row_buffer_hit 489875
Channel_0_RQ_row_buffer_miss 1450588
Channel_0_WQ_row_buffer_hit 91433
Channel_0_WQ_row_buffer_miss 565963
Channel_0_WQ_full 0
Channel_0_dbus_congested 1379516

avg_congested_cycle 10
