*************************************************
   ChampSim Multicore Out-of-Order Simulator
   Last compiled: Dec 25 2023 17:38:56
*************************************************

trace_0 ./test_trace/459.GemsFDTD-1320B.champsimtrace.xz
CPU 0 L1D next line prefetcher
warmup_instructions 100000000
simulation_instructions 100000000
champsim_seed 264

num_cpus 1
cpu_freq 4000
dram_io_freq 2400
page_size 4096
block_size 64
max_read_per_cycle 8
max_fill_per_cycle 1
dram_channels 1
dram_ranks 1
dram_banks 8
dram_rows 65536
dram_columns 128
dram_row_size 8
dram_size 4096
dram_pages 1048576

fetch_width 6
decode_width 6
exec_width 4
lq_width 2
sq_width 2
retire_width 4
scheduler_size 128
branch_mispredict_penalty 20
rob_size 256
lq_size 72
sq_size 56
num_instr_destinations_sparc 4
num_instr_destinations 2
num_instr_sources 4

itlb_set 16
itlb_way 8
itlb_rq_size 16
itlb_wq_size 16
itlb_pq_size 0
itlb_mshr_size 8
itlb_latency 1

dtlb_set 16
dtlb_way 4
dtlb_rq_size 16
dtlb_wq_size 16
dtlb_pq_size 0
dtlb_mshr_size 8
dtlb_latency 1

stlb_set 128
stlb_way 12
stlb_rq_size 32
stlb_wq_size 32
stlb_pq_size 0
stlb_mshr_size 16
stlb_latency 8

l1i_size 32
l1i_set 64
l1i_way 8
l1i_rq_size 64
l1i_wq_size 64
l1i_pq_size 8
l1i_mshr_size 8
l1i_latency 1

l1d_size 32
l1d_set 64
l1d_way 8
l1d_rq_size 64
l1d_wq_size 64
l1d_pq_size 8
l1d_mshr_size 16
l1d_latency 4

l2c_size 512
l2c_set 1024
l2c_way 8
l2c_rq_size 32
l2c_wq_size 32
l2c_pq_size 16
l2c_mshr_size 32
l2c_latency 10

llc_size 2048
llc_set 2048
llc_way 16
llc_rq_size 32
llc_wq_size 32
llc_pq_size 32
llc_mshr_size 64
llc_latency 20

dram_channel_width 8
dram_wq_size 64
dram_rq_size 64
tRP 15
tRCD 15
tCAS 12.5
dram_dbus_turn_around_time 30
dram_write_high_wm 56
dram_write_low_wm 48
min_dram_writes_per_switch 16
dram_mtps 2400
dram_dbus_return_time 13


Heartbeat CPU  0 instructions:    1000000 cycles:     673415 heartbeat IPC: 1.48497 cumulative IPC: 1.48497 (Simulation time: 0 hr 0 min 2 sec) 
Heartbeat CPU  0 instructions:    2000003 cycles:    1346155 heartbeat IPC: 1.48646 cumulative IPC: 1.48572 (Simulation time: 0 hr 0 min 4 sec) 
Heartbeat CPU  0 instructions:    3000002 cycles:    2018801 heartbeat IPC: 1.48666 cumulative IPC: 1.48603 (Simulation time: 0 hr 0 min 6 sec) 
Heartbeat CPU  0 instructions:    4000000 cycles:    2691575 heartbeat IPC: 1.48638 cumulative IPC: 1.48612 (Simulation time: 0 hr 0 min 8 sec) 
Heartbeat CPU  0 instructions:    5000001 cycles:    3364403 heartbeat IPC: 1.48627 cumulative IPC: 1.48615 (Simulation time: 0 hr 0 min 10 sec) 
Heartbeat CPU  0 instructions:    6000001 cycles:    4036728 heartbeat IPC: 1.48738 cumulative IPC: 1.48635 (Simulation time: 0 hr 0 min 11 sec) 
Heartbeat CPU  0 instructions:    7000001 cycles:    4709160 heartbeat IPC: 1.48714 cumulative IPC: 1.48646 (Simulation time: 0 hr 0 min 13 sec) 
Heartbeat CPU  0 instructions:    8000000 cycles:    5381690 heartbeat IPC: 1.48692 cumulative IPC: 1.48652 (Simulation time: 0 hr 0 min 15 sec) 
Heartbeat CPU  0 instructions:    9000003 cycles:    6054286 heartbeat IPC: 1.48678 cumulative IPC: 1.48655 (Simulation time: 0 hr 0 min 17 sec) 
Heartbeat CPU  0 instructions:   10000003 cycles:    6726928 heartbeat IPC: 1.48667 cumulative IPC: 1.48656 (Simulation time: 0 hr 0 min 18 sec) 
Heartbeat CPU  0 instructions:   11000003 cycles:    7399529 heartbeat IPC: 1.48677 cumulative IPC: 1.48658 (Simulation time: 0 hr 0 min 20 sec) 
Heartbeat CPU  0 instructions:   12000000 cycles:    8072068 heartbeat IPC: 1.48690 cumulative IPC: 1.48661 (Simulation time: 0 hr 0 min 22 sec) 
Heartbeat CPU  0 instructions:   13000000 cycles:    8749715 heartbeat IPC: 1.47569 cumulative IPC: 1.48576 (Simulation time: 0 hr 0 min 24 sec) 
Heartbeat CPU  0 instructions:   14000002 cycles:    9428669 heartbeat IPC: 1.47286 cumulative IPC: 1.48483 (Simulation time: 0 hr 0 min 26 sec) 
Heartbeat CPU  0 instructions:   15000000 cycles:   10107720 heartbeat IPC: 1.47264 cumulative IPC: 1.48401 (Simulation time: 0 hr 0 min 27 sec) 
Heartbeat CPU  0 instructions:   16000000 cycles:   10786761 heartbeat IPC: 1.47267 cumulative IPC: 1.48330 (Simulation time: 0 hr 0 min 29 sec) 
Heartbeat CPU  0 instructions:   17000002 cycles:   11465857 heartbeat IPC: 1.47255 cumulative IPC: 1.48266 (Simulation time: 0 hr 0 min 31 sec) 
Heartbeat CPU  0 instructions:   18000003 cycles:   12144865 heartbeat IPC: 1.47274 cumulative IPC: 1.48211 (Simulation time: 0 hr 0 min 33 sec) 
Heartbeat CPU  0 instructions:   19000003 cycles:   12823780 heartbeat IPC: 1.47294 cumulative IPC: 1.48162 (Simulation time: 0 hr 0 min 35 sec) 
Heartbeat CPU  0 instructions:   20000000 cycles:   13502866 heartbeat IPC: 1.47256 cumulative IPC: 1.48117 (Simulation time: 0 hr 0 min 36 sec) 
Heartbeat CPU  0 instructions:   21000002 cycles:   14181993 heartbeat IPC: 1.47248 cumulative IPC: 1.48075 (Simulation time: 0 hr 0 min 38 sec) 
Heartbeat CPU  0 instructions:   22000000 cycles:   14861029 heartbeat IPC: 1.47267 cumulative IPC: 1.48038 (Simulation time: 0 hr 0 min 40 sec) 
Heartbeat CPU  0 instructions:   23000000 cycles:   15540064 heartbeat IPC: 1.47268 cumulative IPC: 1.48005 (Simulation time: 0 hr 0 min 42 sec) 
Heartbeat CPU  0 instructions:   24000000 cycles:   16219090 heartbeat IPC: 1.47270 cumulative IPC: 1.47974 (Simulation time: 0 hr 0 min 43 sec) 
Heartbeat CPU  0 instructions:   25000001 cycles:   16898242 heartbeat IPC: 1.47243 cumulative IPC: 1.47944 (Simulation time: 0 hr 0 min 45 sec) 
Heartbeat CPU  0 instructions:   26000001 cycles:   17577277 heartbeat IPC: 1.47268 cumulative IPC: 1.47918 (Simulation time: 0 hr 0 min 47 sec) 
Heartbeat CPU  0 instructions:   27000001 cycles:   18256243 heartbeat IPC: 1.47283 cumulative IPC: 1.47895 (Simulation time: 0 hr 0 min 49 sec) 
Heartbeat CPU  0 instructions:   28000000 cycles:   18934564 heartbeat IPC: 1.47423 cumulative IPC: 1.47878 (Simulation time: 0 hr 0 min 50 sec) 
Heartbeat CPU  0 instructions:   29000002 cycles:   19611229 heartbeat IPC: 1.47784 cumulative IPC: 1.47874 (Simulation time: 0 hr 0 min 52 sec) 
Heartbeat CPU  0 instructions:   30000000 cycles:   20287875 heartbeat IPC: 1.47787 cumulative IPC: 1.47872 (Simulation time: 0 hr 0 min 54 sec) 
Heartbeat CPU  0 instructions:   31000000 cycles:   20964547 heartbeat IPC: 1.47782 cumulative IPC: 1.47869 (Simulation time: 0 hr 0 min 56 sec) 
Heartbeat CPU  0 instructions:   32000000 cycles:   21641172 heartbeat IPC: 1.47792 cumulative IPC: 1.47866 (Simulation time: 0 hr 0 min 58 sec) 
Heartbeat CPU  0 instructions:   33000002 cycles:   22317999 heartbeat IPC: 1.47749 cumulative IPC: 1.47863 (Simulation time: 0 hr 0 min 59 sec) 
Heartbeat CPU  0 instructions:   34000000 cycles:   22994629 heartbeat IPC: 1.47791 cumulative IPC: 1.47861 (Simulation time: 0 hr 1 min 1 sec) 
Heartbeat CPU  0 instructions:   35000002 cycles:   23671308 heartbeat IPC: 1.47781 cumulative IPC: 1.47858 (Simulation time: 0 hr 1 min 3 sec) 
Heartbeat CPU  0 instructions:   36000000 cycles:   24347863 heartbeat IPC: 1.47807 cumulative IPC: 1.47857 (Simulation time: 0 hr 1 min 5 sec) 
Heartbeat CPU  0 instructions:   37000000 cycles:   25024699 heartbeat IPC: 1.47746 cumulative IPC: 1.47854 (Simulation time: 0 hr 1 min 6 sec) 
Heartbeat CPU  0 instructions:   38000000 cycles:   25701382 heartbeat IPC: 1.47780 cumulative IPC: 1.47852 (Simulation time: 0 hr 1 min 8 sec) 
Heartbeat CPU  0 instructions:   39000002 cycles:   26378109 heartbeat IPC: 1.47770 cumulative IPC: 1.47850 (Simulation time: 0 hr 1 min 10 sec) 
Heartbeat CPU  0 instructions:   40000000 cycles:   27054892 heartbeat IPC: 1.47758 cumulative IPC: 1.47848 (Simulation time: 0 hr 1 min 12 sec) 
Heartbeat CPU  0 instructions:   41000000 cycles:   27731744 heartbeat IPC: 1.47743 cumulative IPC: 1.47845 (Simulation time: 0 hr 1 min 14 sec) 
Heartbeat CPU  0 instructions:   42000002 cycles:   28408436 heartbeat IPC: 1.47778 cumulative IPC: 1.47843 (Simulation time: 0 hr 1 min 16 sec) 
Heartbeat CPU  0 instructions:   43000002 cycles:   29085096 heartbeat IPC: 1.47785 cumulative IPC: 1.47842 (Simulation time: 0 hr 1 min 17 sec) 
Heartbeat CPU  0 instructions:   44000000 cycles:   29751331 heartbeat IPC: 1.50097 cumulative IPC: 1.47893 (Simulation time: 0 hr 1 min 19 sec) 
Heartbeat CPU  0 instructions:   45000003 cycles:   30417543 heartbeat IPC: 1.50103 cumulative IPC: 1.47941 (Simulation time: 0 hr 1 min 21 sec) 
Heartbeat CPU  0 instructions:   46000001 cycles:   31083492 heartbeat IPC: 1.50161 cumulative IPC: 1.47989 (Simulation time: 0 hr 1 min 23 sec) 
Heartbeat CPU  0 instructions:   47000000 cycles:   31749601 heartbeat IPC: 1.50125 cumulative IPC: 1.48033 (Simulation time: 0 hr 1 min 25 sec) 
Heartbeat CPU  0 instructions:   48000000 cycles:   32415542 heartbeat IPC: 1.50163 cumulative IPC: 1.48077 (Simulation time: 0 hr 1 min 26 sec) 
Heartbeat CPU  0 instructions:   49000000 cycles:   33081507 heartbeat IPC: 1.50158 cumulative IPC: 1.48119 (Simulation time: 0 hr 1 min 28 sec) 
Heartbeat CPU  0 instructions:   50000003 cycles:   33747827 heartbeat IPC: 1.50078 cumulative IPC: 1.48158 (Simulation time: 0 hr 1 min 30 sec) 
Heartbeat CPU  0 instructions:   51000003 cycles:   34413758 heartbeat IPC: 1.50166 cumulative IPC: 1.48197 (Simulation time: 0 hr 1 min 32 sec) 
Heartbeat CPU  0 instructions:   52000000 cycles:   35080001 heartbeat IPC: 1.50095 cumulative IPC: 1.48233 (Simulation time: 0 hr 1 min 34 sec) 
Heartbeat CPU  0 instructions:   53000003 cycles:   35746060 heartbeat IPC: 1.50137 cumulative IPC: 1.48268 (Simulation time: 0 hr 1 min 35 sec) 
Heartbeat CPU  0 instructions:   54000000 cycles:   36411950 heartbeat IPC: 1.50174 cumulative IPC: 1.48303 (Simulation time: 0 hr 1 min 37 sec) 
Heartbeat CPU  0 instructions:   55000000 cycles:   37078012 heartbeat IPC: 1.50136 cumulative IPC: 1.48336 (Simulation time: 0 hr 1 min 39 sec) 
Heartbeat CPU  0 instructions:   56000000 cycles:   37739679 heartbeat IPC: 1.51133 cumulative IPC: 1.48385 (Simulation time: 0 hr 1 min 41 sec) 
Heartbeat CPU  0 instructions:   57000003 cycles:   38400873 heartbeat IPC: 1.51242 cumulative IPC: 1.48434 (Simulation time: 0 hr 1 min 43 sec) 
Heartbeat CPU  0 instructions:   58000000 cycles:   39062164 heartbeat IPC: 1.51219 cumulative IPC: 1.48481 (Simulation time: 0 hr 1 min 45 sec) 
Heartbeat CPU  0 instructions:   59000000 cycles:   39723259 heartbeat IPC: 1.51264 cumulative IPC: 1.48528 (Simulation time: 0 hr 1 min 46 sec) 
Heartbeat CPU  0 instructions:   60000000 cycles:   40384381 heartbeat IPC: 1.51258 cumulative IPC: 1.48572 (Simulation time: 0 hr 1 min 48 sec) 
Heartbeat CPU  0 instructions:   61000001 cycles:   41046038 heartbeat IPC: 1.51136 cumulative IPC: 1.48614 (Simulation time: 0 hr 1 min 50 sec) 
Heartbeat CPU  0 instructions:   62000000 cycles:   41707408 heartbeat IPC: 1.51201 cumulative IPC: 1.48655 (Simulation time: 0 hr 1 min 52 sec) 
Heartbeat CPU  0 instructions:   63000001 cycles:   42368565 heartbeat IPC: 1.51250 cumulative IPC: 1.48695 (Simulation time: 0 hr 1 min 54 sec) 
Heartbeat CPU  0 instructions:   64000000 cycles:   43029818 heartbeat IPC: 1.51228 cumulative IPC: 1.48734 (Simulation time: 0 hr 1 min 55 sec) 
Heartbeat CPU  0 instructions:   65000003 cycles:   43691081 heartbeat IPC: 1.51226 cumulative IPC: 1.48772 (Simulation time: 0 hr 1 min 57 sec) 
Heartbeat CPU  0 instructions:   66000000 cycles:   44352151 heartbeat IPC: 1.51269 cumulative IPC: 1.48809 (Simulation time: 0 hr 1 min 59 sec) 
Heartbeat CPU  0 instructions:   67000000 cycles:   45013491 heartbeat IPC: 1.51208 cumulative IPC: 1.48844 (Simulation time: 0 hr 2 min 1 sec) 
Heartbeat CPU  0 instructions:   68000000 cycles:   45683440 heartbeat IPC: 1.49265 cumulative IPC: 1.48850 (Simulation time: 0 hr 2 min 3 sec) 
Heartbeat CPU  0 instructions:   69000002 cycles:   46353989 heartbeat IPC: 1.49132 cumulative IPC: 1.48855 (Simulation time: 0 hr 2 min 4 sec) 
Heartbeat CPU  0 instructions:   70000001 cycles:   47024983 heartbeat IPC: 1.49032 cumulative IPC: 1.48857 (Simulation time: 0 hr 2 min 6 sec) 
Heartbeat CPU  0 instructions:   71000002 cycles:   47695636 heartbeat IPC: 1.49109 cumulative IPC: 1.48861 (Simulation time: 0 hr 2 min 8 sec) 
Heartbeat CPU  0 instructions:   72000000 cycles:   48366435 heartbeat IPC: 1.49076 cumulative IPC: 1.48864 (Simulation time: 0 hr 2 min 10 sec) 
Heartbeat CPU  0 instructions:   73000002 cycles:   49037030 heartbeat IPC: 1.49122 cumulative IPC: 1.48867 (Simulation time: 0 hr 2 min 12 sec) 
Heartbeat CPU  0 instructions:   74000000 cycles:   49707496 heartbeat IPC: 1.49150 cumulative IPC: 1.48871 (Simulation time: 0 hr 2 min 13 sec) 
Heartbeat CPU  0 instructions:   75000001 cycles:   50378477 heartbeat IPC: 1.49036 cumulative IPC: 1.48873 (Simulation time: 0 hr 2 min 15 sec) 
Heartbeat CPU  0 instructions:   76000000 cycles:   51048890 heartbeat IPC: 1.49162 cumulative IPC: 1.48877 (Simulation time: 0 hr 2 min 17 sec) 
Heartbeat CPU  0 instructions:   77000000 cycles:   51719817 heartbeat IPC: 1.49048 cumulative IPC: 1.48879 (Simulation time: 0 hr 2 min 19 sec) 
Heartbeat CPU  0 instructions:   78000003 cycles:   52390555 heartbeat IPC: 1.49090 cumulative IPC: 1.48882 (Simulation time: 0 hr 2 min 21 sec) 
Heartbeat CPU  0 instructions:   79000002 cycles:   53061244 heartbeat IPC: 1.49100 cumulative IPC: 1.48885 (Simulation time: 0 hr 2 min 22 sec) 
Heartbeat CPU  0 instructions:   80000000 cycles:   53734158 heartbeat IPC: 1.48607 cumulative IPC: 1.48881 (Simulation time: 0 hr 2 min 24 sec) 
Heartbeat CPU  0 instructions:   81000003 cycles:   54408034 heartbeat IPC: 1.48396 cumulative IPC: 1.48875 (Simulation time: 0 hr 2 min 26 sec) 
Heartbeat CPU  0 instructions:   82000001 cycles:   55081472 heartbeat IPC: 1.48491 cumulative IPC: 1.48870 (Simulation time: 0 hr 2 min 28 sec) 
Heartbeat CPU  0 instructions:   83000002 cycles:   55755111 heartbeat IPC: 1.48448 cumulative IPC: 1.48865 (Simulation time: 0 hr 2 min 30 sec) 
Heartbeat CPU  0 instructions:   84000000 cycles:   56428506 heartbeat IPC: 1.48501 cumulative IPC: 1.48861 (Simulation time: 0 hr 2 min 32 sec) 
Heartbeat CPU  0 instructions:   85000000 cycles:   57102137 heartbeat IPC: 1.48449 cumulative IPC: 1.48856 (Simulation time: 0 hr 2 min 34 sec) 
Heartbeat CPU  0 instructions:   86000001 cycles:   57775773 heartbeat IPC: 1.48448 cumulative IPC: 1.48851 (Simulation time: 0 hr 2 min 35 sec) 
Heartbeat CPU  0 instructions:   87000000 cycles:   58449459 heartbeat IPC: 1.48437 cumulative IPC: 1.48847 (Simulation time: 0 hr 2 min 37 sec) 
Heartbeat CPU  0 instructions:   88000000 cycles:   59123172 heartbeat IPC: 1.48431 cumulative IPC: 1.48842 (Simulation time: 0 hr 2 min 39 sec) 
Heartbeat CPU  0 instructions:   89000002 cycles:   59796958 heartbeat IPC: 1.48415 cumulative IPC: 1.48837 (Simulation time: 0 hr 2 min 41 sec) 
Heartbeat CPU  0 instructions:   90000001 cycles:   60470428 heartbeat IPC: 1.48485 cumulative IPC: 1.48833 (Simulation time: 0 hr 2 min 43 sec) 
Heartbeat CPU  0 instructions:   91000000 cycles:   61143934 heartbeat IPC: 1.48477 cumulative IPC: 1.48829 (Simulation time: 0 hr 2 min 45 sec) 
Heartbeat CPU  0 instructions:   92000000 cycles:   61820537 heartbeat IPC: 1.47797 cumulative IPC: 1.48818 (Simulation time: 0 hr 2 min 47 sec) 
Heartbeat CPU  0 instructions:   93000001 cycles:   62499582 heartbeat IPC: 1.47266 cumulative IPC: 1.48801 (Simulation time: 0 hr 2 min 48 sec) 
Heartbeat CPU  0 instructions:   94000001 cycles:   63178533 heartbeat IPC: 1.47286 cumulative IPC: 1.48785 (Simulation time: 0 hr 2 min 50 sec) 
Heartbeat CPU  0 instructions:   95000001 cycles:   63857554 heartbeat IPC: 1.47271 cumulative IPC: 1.48769 (Simulation time: 0 hr 2 min 52 sec) 
Heartbeat CPU  0 instructions:   96000000 cycles:   64536544 heartbeat IPC: 1.47277 cumulative IPC: 1.48753 (Simulation time: 0 hr 2 min 54 sec) 
Heartbeat CPU  0 instructions:   97000000 cycles:   65215607 heartbeat IPC: 1.47262 cumulative IPC: 1.48737 (Simulation time: 0 hr 2 min 56 sec) 
Heartbeat CPU  0 instructions:   98000000 cycles:   65894623 heartbeat IPC: 1.47272 cumulative IPC: 1.48722 (Simulation time: 0 hr 2 min 58 sec) 
Heartbeat CPU  0 instructions:   99000000 cycles:   66573634 heartbeat IPC: 1.47273 cumulative IPC: 1.48708 (Simulation time: 0 hr 2 min 59 sec) 
Heartbeat CPU  0 instructions:  100000000 cycles:   67252654 heartbeat IPC: 1.47271 cumulative IPC: 1.48693 (Simulation time: 0 hr 3 min 1 sec) 

Warmup complete CPU  0 instructions:  100000001 cycles:   67252655 (Simulation time: 0 hr 3 min 1 sec) 

Heartbeat CPU  0 instructions:  101000000 cycles:   68387734 heartbeat IPC: 0.88100 cumulative IPC: 0.88100 (Simulation time: 0 hr 3 min 3 sec) 
Heartbeat CPU  0 instructions:  102000002 cycles:   69522337 heartbeat IPC: 0.88137 cumulative IPC: 0.88118 (Simulation time: 0 hr 3 min 5 sec) 
Heartbeat CPU  0 instructions:  103000001 cycles:   70658525 heartbeat IPC: 0.88014 cumulative IPC: 0.88083 (Simulation time: 0 hr 3 min 7 sec) 
Heartbeat CPU  0 instructions:  104000000 cycles:   71792842 heartbeat IPC: 0.88159 cumulative IPC: 0.88102 (Simulation time: 0 hr 3 min 9 sec) 
Heartbeat CPU  0 instructions:  105000001 cycles:   72928735 heartbeat IPC: 0.88037 cumulative IPC: 0.88089 (Simulation time: 0 hr 3 min 11 sec) 
Heartbeat CPU  0 instructions:  106000001 cycles:   74063559 heartbeat IPC: 0.88119 cumulative IPC: 0.88094 (Simulation time: 0 hr 3 min 14 sec) 
Heartbeat CPU  0 instructions:  107000002 cycles:   75414454 heartbeat IPC: 0.74025 cumulative IPC: 0.85765 (Simulation time: 0 hr 3 min 16 sec) 
Heartbeat CPU  0 instructions:  108000000 cycles:   76542355 heartbeat IPC: 0.88660 cumulative IPC: 0.86117 (Simulation time: 0 hr 3 min 18 sec) 
Heartbeat CPU  0 instructions:  109000000 cycles:   77669367 heartbeat IPC: 0.88730 cumulative IPC: 0.86400 (Simulation time: 0 hr 3 min 20 sec) 
Heartbeat CPU  0 instructions:  110000002 cycles:   78794726 heartbeat IPC: 0.88861 cumulative IPC: 0.86640 (Simulation time: 0 hr 3 min 22 sec) 
Heartbeat CPU  0 instructions:  111000000 cycles:   79917526 heartbeat IPC: 0.89063 cumulative IPC: 0.86854 (Simulation time: 0 hr 3 min 24 sec) 
Heartbeat CPU  0 instructions:  112000000 cycles:   81042130 heartbeat IPC: 0.88920 cumulative IPC: 0.87023 (Simulation time: 0 hr 3 min 26 sec) 
Heartbeat CPU  0 instructions:  113000000 cycles:   82170349 heartbeat IPC: 0.88635 cumulative IPC: 0.87145 (Simulation time: 0 hr 3 min 28 sec) 
Heartbeat CPU  0 instructions:  114000002 cycles:   83300453 heartbeat IPC: 0.88488 cumulative IPC: 0.87239 (Simulation time: 0 hr 3 min 30 sec) 
Heartbeat CPU  0 instructions:  115000002 cycles:   84430438 heartbeat IPC: 0.88497 cumulative IPC: 0.87322 (Simulation time: 0 hr 3 min 32 sec) 
Heartbeat CPU  0 instructions:  116000000 cycles:   85560484 heartbeat IPC: 0.88492 cumulative IPC: 0.87394 (Simulation time: 0 hr 3 min 34 sec) 
Heartbeat CPU  0 instructions:  117000002 cycles:   86691207 heartbeat IPC: 0.88439 cumulative IPC: 0.87455 (Simulation time: 0 hr 3 min 36 sec) 
Heartbeat CPU  0 instructions:  118000000 cycles:   87818217 heartbeat IPC: 0.88730 cumulative IPC: 0.87525 (Simulation time: 0 hr 3 min 38 sec) 
Heartbeat CPU  0 instructions:  119000000 cycles:   88945401 heartbeat IPC: 0.88717 cumulative IPC: 0.87587 (Simulation time: 0 hr 3 min 40 sec) 
Heartbeat CPU  0 instructions:  120000000 cycles:   90065840 heartbeat IPC: 0.89251 cumulative IPC: 0.87669 (Simulation time: 0 hr 3 min 42 sec) 
Heartbeat CPU  0 instructions:  121000002 cycles:   91193408 heartbeat IPC: 0.88687 cumulative IPC: 0.87717 (Simulation time: 0 hr 3 min 45 sec) 
Heartbeat CPU  0 instructions:  122000002 cycles:   92318584 heartbeat IPC: 0.88875 cumulative IPC: 0.87769 (Simulation time: 0 hr 3 min 47 sec) 
Heartbeat CPU  0 instructions:  123000003 cycles:   93170420 heartbeat IPC: 1.17394 cumulative IPC: 0.88742 (Simulation time: 0 hr 3 min 48 sec) 
Heartbeat CPU  0 instructions:  124000000 cycles:   94122327 heartbeat IPC: 1.05052 cumulative IPC: 0.89320 (Simulation time: 0 hr 3 min 50 sec) 
Heartbeat CPU  0 instructions:  125000000 cycles:   95314798 heartbeat IPC: 0.83859 cumulative IPC: 0.89088 (Simulation time: 0 hr 3 min 52 sec) 
Heartbeat CPU  0 instructions:  126000001 cycles:   96639006 heartbeat IPC: 0.75517 cumulative IPC: 0.88476 (Simulation time: 0 hr 3 min 53 sec) 
Heartbeat CPU  0 instructions:  127000001 cycles:   97918498 heartbeat IPC: 0.78156 cumulative IPC: 0.88046 (Simulation time: 0 hr 3 min 55 sec) 
Heartbeat CPU  0 instructions:  128000000 cycles:   99218751 heartbeat IPC: 0.76908 cumulative IPC: 0.87593 (Simulation time: 0 hr 3 min 57 sec) 
Heartbeat CPU  0 instructions:  129000002 cycles:  100511026 heartbeat IPC: 0.77383 cumulative IPC: 0.87196 (Simulation time: 0 hr 3 min 59 sec) 
Heartbeat CPU  0 instructions:  130000002 cycles:  101791519 heartbeat IPC: 0.78095 cumulative IPC: 0.86859 (Simulation time: 0 hr 4 min 1 sec) 
Heartbeat CPU  0 instructions:  131000003 cycles:  103085895 heartbeat IPC: 0.77257 cumulative IPC: 0.86512 (Simulation time: 0 hr 4 min 2 sec) 
Heartbeat CPU  0 instructions:  132000000 cycles:  104358682 heartbeat IPC: 0.78568 cumulative IPC: 0.86239 (Simulation time: 0 hr 4 min 4 sec) 
Heartbeat CPU  0 instructions:  133000000 cycles:  105635003 heartbeat IPC: 0.78350 cumulative IPC: 0.85977 (Simulation time: 0 hr 4 min 6 sec) 
Heartbeat CPU  0 instructions:  134000001 cycles:  106907383 heartbeat IPC: 0.78593 cumulative IPC: 0.85740 (Simulation time: 0 hr 4 min 8 sec) 
Heartbeat CPU  0 instructions:  135000001 cycles:  108189186 heartbeat IPC: 0.78015 cumulative IPC: 0.85498 (Simulation time: 0 hr 4 min 10 sec) 
Heartbeat CPU  0 instructions:  136000000 cycles:  109461401 heartbeat IPC: 0.78603 cumulative IPC: 0.85290 (Simulation time: 0 hr 4 min 12 sec) 
Heartbeat CPU  0 instructions:  137000002 cycles:  110731978 heartbeat IPC: 0.78705 cumulative IPC: 0.85098 (Simulation time: 0 hr 4 min 13 sec) 
Heartbeat CPU  0 instructions:  138000003 cycles:  112016930 heartbeat IPC: 0.77824 cumulative IPC: 0.84889 (Simulation time: 0 hr 4 min 15 sec) 
Heartbeat CPU  0 instructions:  139000003 cycles:  113304500 heartbeat IPC: 0.77666 cumulative IPC: 0.84687 (Simulation time: 0 hr 4 min 17 sec) 
Heartbeat CPU  0 instructions:  140000000 cycles:  114600936 heartbeat IPC: 0.77134 cumulative IPC: 0.84480 (Simulation time: 0 hr 4 min 19 sec) 
Heartbeat CPU  0 instructions:  141000000 cycles:  115870257 heartbeat IPC: 0.78782 cumulative IPC: 0.84332 (Simulation time: 0 hr 4 min 21 sec) 
Heartbeat CPU  0 instructions:  142000001 cycles:  117133994 heartbeat IPC: 0.79130 cumulative IPC: 0.84200 (Simulation time: 0 hr 4 min 22 sec) 
Heartbeat CPU  0 instructions:  143000002 cycles:  118408584 heartbeat IPC: 0.78457 cumulative IPC: 0.84057 (Simulation time: 0 hr 4 min 24 sec) 
Heartbeat CPU  0 instructions:  144000000 cycles:  119703253 heartbeat IPC: 0.77240 cumulative IPC: 0.83888 (Simulation time: 0 hr 4 min 26 sec) 
Heartbeat CPU  0 instructions:  145000002 cycles:  120992585 heartbeat IPC: 0.77560 cumulative IPC: 0.83737 (Simulation time: 0 hr 4 min 28 sec) 
Heartbeat CPU  0 instructions:  146000003 cycles:  122301811 heartbeat IPC: 0.76381 cumulative IPC: 0.83562 (Simulation time: 0 hr 4 min 30 sec) 
Heartbeat CPU  0 instructions:  147000003 cycles:  123606592 heartbeat IPC: 0.76641 cumulative IPC: 0.83401 (Simulation time: 0 hr 4 min 31 sec) 
Heartbeat CPU  0 instructions:  148000000 cycles:  125007279 heartbeat IPC: 0.71393 cumulative IPC: 0.83110 (Simulation time: 0 hr 4 min 33 sec) 
Heartbeat CPU  0 instructions:  149000000 cycles:  126614160 heartbeat IPC: 0.62232 cumulative IPC: 0.82545 (Simulation time: 0 hr 4 min 35 sec) 
Heartbeat CPU  0 instructions:  150000001 cycles:  128220152 heartbeat IPC: 0.62267 cumulative IPC: 0.82011 (Simulation time: 0 hr 4 min 37 sec) 
Heartbeat CPU  0 instructions:  151000001 cycles:  129796749 heartbeat IPC: 0.63428 cumulative IPC: 0.81542 (Simulation time: 0 hr 4 min 39 sec) 
Heartbeat CPU  0 instructions:  152000000 cycles:  131327653 heartbeat IPC: 0.65321 cumulative IPC: 0.81155 (Simulation time: 0 hr 4 min 41 sec) 
Heartbeat CPU  0 instructions:  153000002 cycles:  132963140 heartbeat IPC: 0.61144 cumulative IPC: 0.80657 (Simulation time: 0 hr 4 min 43 sec) 
Heartbeat CPU  0 instructions:  154000003 cycles:  134490940 heartbeat IPC: 0.65454 cumulative IPC: 0.80311 (Simulation time: 0 hr 4 min 45 sec) 
Heartbeat CPU  0 instructions:  155000000 cycles:  136095197 heartbeat IPC: 0.62334 cumulative IPC: 0.79892 (Simulation time: 0 hr 4 min 47 sec) 
Heartbeat CPU  0 instructions:  156000000 cycles:  137667060 heartbeat IPC: 0.63619 cumulative IPC: 0.79529 (Simulation time: 0 hr 4 min 49 sec) 
Heartbeat CPU  0 instructions:  157000000 cycles:  139289076 heartbeat IPC: 0.61652 cumulative IPC: 0.79127 (Simulation time: 0 hr 4 min 51 sec) 
Heartbeat CPU  0 instructions:  158000001 cycles:  140847646 heartbeat IPC: 0.64161 cumulative IPC: 0.78810 (Simulation time: 0 hr 4 min 52 sec) 
Heartbeat CPU  0 instructions:  159000001 cycles:  142483560 heartbeat IPC: 0.61128 cumulative IPC: 0.78425 (Simulation time: 0 hr 4 min 54 sec) 
Heartbeat CPU  0 instructions:  160000000 cycles:  144046319 heartbeat IPC: 0.63989 cumulative IPC: 0.78131 (Simulation time: 0 hr 4 min 56 sec) 
Heartbeat CPU  0 instructions:  161000002 cycles:  145655324 heartbeat IPC: 0.62150 cumulative IPC: 0.77803 (Simulation time: 0 hr 4 min 58 sec) 
Heartbeat CPU  0 instructions:  162000003 cycles:  147222532 heartbeat IPC: 0.63808 cumulative IPC: 0.77529 (Simulation time: 0 hr 5 min 0 sec) 
Heartbeat CPU  0 instructions:  163000003 cycles:  148907478 heartbeat IPC: 0.59349 cumulative IPC: 0.77154 (Simulation time: 0 hr 5 min 2 sec) 
Heartbeat CPU  0 instructions:  164000000 cycles:  150485354 heartbeat IPC: 0.63376 cumulative IPC: 0.76893 (Simulation time: 0 hr 5 min 4 sec) 
Heartbeat CPU  0 instructions:  165000000 cycles:  152130116 heartbeat IPC: 0.60799 cumulative IPC: 0.76581 (Simulation time: 0 hr 5 min 6 sec) 
Heartbeat CPU  0 instructions:  166000001 cycles:  153655947 heartbeat IPC: 0.65538 cumulative IPC: 0.76386 (Simulation time: 0 hr 5 min 8 sec) 
Heartbeat CPU  0 instructions:  167000001 cycles:  155314515 heartbeat IPC: 0.60293 cumulative IPC: 0.76083 (Simulation time: 0 hr 5 min 10 sec) 
Heartbeat CPU  0 instructions:  168000000 cycles:  156869670 heartbeat IPC: 0.64302 cumulative IPC: 0.75878 (Simulation time: 0 hr 5 min 12 sec) 
Heartbeat CPU  0 instructions:  169000002 cycles:  158463301 heartbeat IPC: 0.62750 cumulative IPC: 0.75649 (Simulation time: 0 hr 5 min 14 sec) 
Heartbeat CPU  0 instructions:  170000003 cycles:  160057347 heartbeat IPC: 0.62734 cumulative IPC: 0.75427 (Simulation time: 0 hr 5 min 16 sec) 
Heartbeat CPU  0 instructions:  171000000 cycles:  161635197 heartbeat IPC: 0.63377 cumulative IPC: 0.75226 (Simulation time: 0 hr 5 min 17 sec) 
Heartbeat CPU  0 instructions:  172000000 cycles:  163207608 heartbeat IPC: 0.63597 cumulative IPC: 0.75035 (Simulation time: 0 hr 5 min 19 sec) 
Heartbeat CPU  0 instructions:  173000002 cycles:  164786007 heartbeat IPC: 0.63355 cumulative IPC: 0.74846 (Simulation time: 0 hr 5 min 21 sec) 
Heartbeat CPU  0 instructions:  174000001 cycles:  166433047 heartbeat IPC: 0.60715 cumulative IPC: 0.74612 (Simulation time: 0 hr 5 min 23 sec) 
Heartbeat CPU  0 instructions:  175000003 cycles:  167955801 heartbeat IPC: 0.65671 cumulative IPC: 0.74476 (Simulation time: 0 hr 5 min 25 sec) 
Heartbeat CPU  0 instructions:  176000000 cycles:  169583621 heartbeat IPC: 0.61432 cumulative IPC: 0.74269 (Simulation time: 0 hr 5 min 27 sec) 
Heartbeat CPU  0 instructions:  177000003 cycles:  171117876 heartbeat IPC: 0.65178 cumulative IPC: 0.74135 (Simulation time: 0 hr 5 min 29 sec) 
Heartbeat CPU  0 instructions:  178000003 cycles:  172759912 heartbeat IPC: 0.60900 cumulative IPC: 0.73929 (Simulation time: 0 hr 5 min 31 sec) 
Heartbeat CPU  0 instructions:  179000000 cycles:  174284196 heartbeat IPC: 0.65604 cumulative IPC: 0.73810 (Simulation time: 0 hr 5 min 33 sec) 
Heartbeat CPU  0 instructions:  180000000 cycles:  175919184 heartbeat IPC: 0.61163 cumulative IPC: 0.73620 (Simulation time: 0 hr 5 min 35 sec) 
Heartbeat CPU  0 instructions:  181000001 cycles:  177507861 heartbeat IPC: 0.62946 cumulative IPC: 0.73466 (Simulation time: 0 hr 5 min 37 sec) 
Heartbeat CPU  0 instructions:  182000001 cycles:  179109958 heartbeat IPC: 0.62418 cumulative IPC: 0.73308 (Simulation time: 0 hr 5 min 39 sec) 
Heartbeat CPU  0 instructions:  183000002 cycles:  180648150 heartbeat IPC: 0.65011 cumulative IPC: 0.73195 (Simulation time: 0 hr 5 min 40 sec) 
Heartbeat CPU  0 instructions:  184000000 cycles:  182311388 heartbeat IPC: 0.60124 cumulative IPC: 0.73006 (Simulation time: 0 hr 5 min 42 sec) 
Heartbeat CPU  0 instructions:  185000003 cycles:  183847135 heartbeat IPC: 0.65115 cumulative IPC: 0.72902 (Simulation time: 0 hr 5 min 44 sec) 
Heartbeat CPU  0 instructions:  186000003 cycles:  185471825 heartbeat IPC: 0.61550 cumulative IPC: 0.72746 (Simulation time: 0 hr 5 min 46 sec) 
Heartbeat CPU  0 instructions:  187000000 cycles:  187044580 heartbeat IPC: 0.63583 cumulative IPC: 0.72626 (Simulation time: 0 hr 5 min 48 sec) 
Heartbeat CPU  0 instructions:  188000000 cycles:  188680355 heartbeat IPC: 0.61133 cumulative IPC: 0.72471 (Simulation time: 0 hr 5 min 50 sec) 
Heartbeat CPU  0 instructions:  189000001 cycles:  190195041 heartbeat IPC: 0.66020 cumulative IPC: 0.72392 (Simulation time: 0 hr 5 min 52 sec) 
Heartbeat CPU  0 instructions:  190000001 cycles:  191846737 heartbeat IPC: 0.60544 cumulative IPC: 0.72235 (Simulation time: 0 hr 5 min 54 sec) 
Heartbeat CPU  0 instructions:  191000002 cycles:  193431385 heartbeat IPC: 0.63106 cumulative IPC: 0.72120 (Simulation time: 0 hr 5 min 56 sec) 
Heartbeat CPU  0 instructions:  192000000 cycles:  195053307 heartbeat IPC: 0.61655 cumulative IPC: 0.71987 (Simulation time: 0 hr 5 min 58 sec) 
Heartbeat CPU  0 instructions:  193000003 cycles:  196623176 heartbeat IPC: 0.63700 cumulative IPC: 0.71887 (Simulation time: 0 hr 6 min 0 sec) 
Heartbeat CPU  0 instructions:  194000003 cycles:  198269437 heartbeat IPC: 0.60744 cumulative IPC: 0.71747 (Simulation time: 0 hr 6 min 2 sec) 
Heartbeat CPU  0 instructions:  195000001 cycles:  199785204 heartbeat IPC: 0.65973 cumulative IPC: 0.71681 (Simulation time: 0 hr 6 min 4 sec) 
Heartbeat CPU  0 instructions:  196000000 cycles:  201393435 heartbeat IPC: 0.62180 cumulative IPC: 0.71567 (Simulation time: 0 hr 6 min 5 sec) 
Heartbeat CPU  0 instructions:  197000001 cycles:  202977546 heartbeat IPC: 0.63127 cumulative IPC: 0.71468 (Simulation time: 0 hr 6 min 7 sec) 
Heartbeat CPU  0 instructions:  198000001 cycles:  204576554 heartbeat IPC: 0.62539 cumulative IPC: 0.71364 (Simulation time: 0 hr 6 min 9 sec) 
Heartbeat CPU  0 instructions:  199000002 cycles:  206150018 heartbeat IPC: 0.63554 cumulative IPC: 0.71276 (Simulation time: 0 hr 6 min 11 sec) 
Heartbeat CPU  0 instructions:  200000000 cycles:  207764015 heartbeat IPC: 0.61958 cumulative IPC: 0.71169 (Simulation time: 0 hr 6 min 13 sec) 
Finished CPU 0 instructions: 100000001 cycles: 140511368 cumulative IPC: 0.71169 (Simulation time: 0 hr 6 min 13 sec) 

ChampSim completed all CPUs

[ROI Statistics]
Core_0_instructions 100000001
Core_0_cycles 140511368
Core_0_IPC 0.71169

Core_0_branch_prediction_accuracy 99.52414
Core_0_branch_MPKI 0.08716
Core_0_average_ROB_occupancy_at_mispredict 253.74874

Core_0_L1D_total_access 51203854
Core_0_L1D_total_hit 48179689
Core_0_L1D_total_miss 3024165
Core_0_L1D_loads 26809417
Core_0_L1D_load_hit 25524416
Core_0_L1D_load_miss 1285001
Core_0_L1D_RFOs 6122320
Core_0_L1D_RFO_hit 6122299
Core_0_L1D_RFO_miss 21
Core_0_L1D_prefetches 18272117
Core_0_L1D_prefetch_hit 16532974
Core_0_L1D_prefetch_miss 1739143
Core_0_L1D_writebacks 0
Core_0_L1D_writeback_hit 0
Core_0_L1D_writeback_miss 0
Core_0_L1D_prefetch_requested 80446184
Core_0_L1D_prefetch_issued 69950770
Core_0_L1D_prefetch_useful 1112278
Core_0_L1D_prefetch_useless 3514738
Core_0_L1D_prefetch_late 608366
Core_0_L1D_average_miss_latency 29586038.91015

Core_0_L1I_total_access 21145945
Core_0_L1I_total_hit 21145868
Core_0_L1I_total_miss 77
Core_0_L1I_loads 21145945
Core_0_L1I_load_hit 21145868
Core_0_L1I_load_miss 77
Core_0_L1I_RFOs 0
Core_0_L1I_RFO_hit 0
Core_0_L1I_RFO_miss 0
Core_0_L1I_prefetches 0
Core_0_L1I_prefetch_hit 0
Core_0_L1I_prefetch_miss 0
Core_0_L1I_writebacks 0
Core_0_L1I_writeback_hit 0
Core_0_L1I_writeback_miss 0
Core_0_L1I_prefetch_requested 0
Core_0_L1I_prefetch_issued 0
Core_0_L1I_prefetch_useful 0
Core_0_L1I_prefetch_useless 0
Core_0_L1I_prefetch_late 0
Core_0_L1I_average_miss_latency 217.03896

Core_0_L2C_total_access 3703515
Core_0_L2C_total_hit 1722660
Core_0_L2C_total_miss 1980855
Core_0_L2C_loads 676708
Core_0_L2C_load_hit 556440
Core_0_L2C_load_miss 120268
Core_0_L2C_RFOs 21
Core_0_L2C_RFO_hit 0
Core_0_L2C_RFO_miss 21
Core_0_L2C_prefetches 2347505
Core_0_L2C_prefetch_hit 487055
Core_0_L2C_prefetch_miss 1860450
Core_0_L2C_writebacks 679281
Core_0_L2C_writeback_hit 679165
Core_0_L2C_writeback_miss 116
Core_0_L2C_prefetch_requested 0
Core_0_L2C_prefetch_issued 0
Core_0_L2C_prefetch_useful 312918
Core_0_L2C_prefetch_useless 2239335
Core_0_L2C_prefetch_late 0
Core_0_L2C_average_miss_latency 375.02872

Core_0_LLC_total_access 2656175
Core_0_LLC_total_hit 717920
Core_0_LLC_total_miss 1938255
Core_0_LLC_loads 120268
Core_0_LLC_load_hit 17706
Core_0_LLC_load_miss 102562
Core_0_LLC_RFOs 21
Core_0_LLC_RFO_hit 0
Core_0_LLC_RFO_miss 21
Core_0_LLC_prefetches 1860450
Core_0_LLC_prefetch_hit 24887
Core_0_LLC_prefetch_miss 1835563
Core_0_LLC_writebacks 675436
Core_0_LLC_writeback_hit 675327
Core_0_LLC_writeback_miss 109
Core_0_LLC_prefetch_requested 0
Core_0_LLC_prefetch_issued 0
Core_0_LLC_prefetch_useful 47137
Core_0_LLC_prefetch_useless 2301968
Core_0_LLC_prefetch_late 0
Core_0_LLC_average_miss_latency 351.88674

Core_0_major_page_fault 0
Core_0_minor_page_fault 80857

CPU 0 L1D next line prefetcher final stats
Channel_0_RQ_row_buffer_hit 442936
Channel_0_RQ_row_buffer_miss 1495210
Channel_0_WQ_row_buffer_hit 173554
Channel_0_WQ_row_buffer_miss 493174
Channel_0_WQ_full 0
Channel_0_dbus_congested 1059759

avg_congested_cycle 10
