*************************************************
   ChampSim Multicore Out-of-Order Simulator
   Last compiled: Dec 25 2023 17:45:19
*************************************************

trace_0 ./test_trace/459.GemsFDTD-1320B.champsimtrace.xz
CPU 0 L1D next line prefetcher
Initialize SHIP state
warmup_instructions 100000000
simulation_instructions 100000000
champsim_seed 264

num_cpus 1
cpu_freq 4000
dram_io_freq 2400
page_size 4096
block_size 64
max_read_per_cycle 8
max_fill_per_cycle 1
dram_channels 1
dram_ranks 1
dram_banks 8
dram_rows 65536
dram_columns 128
dram_row_size 8
dram_size 4096
dram_pages 1048576

fetch_width 6
decode_width 6
exec_width 4
lq_width 2
sq_width 2
retire_width 4
scheduler_size 128
branch_mispredict_penalty 20
rob_size 256
lq_size 72
sq_size 56
num_instr_destinations_sparc 4
num_instr_destinations 2
num_instr_sources 4

itlb_set 16
itlb_way 8
itlb_rq_size 16
itlb_wq_size 16
itlb_pq_size 0
itlb_mshr_size 8
itlb_latency 1

dtlb_set 16
dtlb_way 4
dtlb_rq_size 16
dtlb_wq_size 16
dtlb_pq_size 0
dtlb_mshr_size 8
dtlb_latency 1

stlb_set 128
stlb_way 12
stlb_rq_size 32
stlb_wq_size 32
stlb_pq_size 0
stlb_mshr_size 16
stlb_latency 8

l1i_size 32
l1i_set 64
l1i_way 8
l1i_rq_size 64
l1i_wq_size 64
l1i_pq_size 8
l1i_mshr_size 8
l1i_latency 1

l1d_size 32
l1d_set 64
l1d_way 8
l1d_rq_size 64
l1d_wq_size 64
l1d_pq_size 8
l1d_mshr_size 16
l1d_latency 4

l2c_size 512
l2c_set 1024
l2c_way 8
l2c_rq_size 32
l2c_wq_size 32
l2c_pq_size 16
l2c_mshr_size 32
l2c_latency 10

llc_size 2048
llc_set 2048
llc_way 16
llc_rq_size 32
llc_wq_size 32
llc_pq_size 32
llc_mshr_size 64
llc_latency 20

dram_channel_width 8
dram_wq_size 64
dram_rq_size 64
tRP 15
tRCD 15
tCAS 12.5
dram_dbus_turn_around_time 30
dram_write_high_wm 56
dram_write_low_wm 48
min_dram_writes_per_switch 16
dram_mtps 2400
dram_dbus_return_time 13


Heartbeat CPU  0 instructions:    1000000 cycles:     673476 heartbeat IPC: 1.48483 cumulative IPC: 1.48483 (Simulation time: 0 hr 0 min 2 sec) 
Heartbeat CPU  0 instructions:    2000003 cycles:    1346228 heartbeat IPC: 1.48644 cumulative IPC: 1.48563 (Simulation time: 0 hr 0 min 4 sec) 
Heartbeat CPU  0 instructions:    3000002 cycles:    2019037 heartbeat IPC: 1.48630 cumulative IPC: 1.48586 (Simulation time: 0 hr 0 min 5 sec) 
Heartbeat CPU  0 instructions:    4000000 cycles:    2691902 heartbeat IPC: 1.48618 cumulative IPC: 1.48594 (Simulation time: 0 hr 0 min 7 sec) 
Heartbeat CPU  0 instructions:    5000001 cycles:    3364868 heartbeat IPC: 1.48596 cumulative IPC: 1.48594 (Simulation time: 0 hr 0 min 9 sec) 
Heartbeat CPU  0 instructions:    6000001 cycles:    4037281 heartbeat IPC: 1.48718 cumulative IPC: 1.48615 (Simulation time: 0 hr 0 min 11 sec) 
Heartbeat CPU  0 instructions:    7000001 cycles:    4709856 heartbeat IPC: 1.48682 cumulative IPC: 1.48625 (Simulation time: 0 hr 0 min 13 sec) 
Heartbeat CPU  0 instructions:    8000000 cycles:    5382481 heartbeat IPC: 1.48671 cumulative IPC: 1.48630 (Simulation time: 0 hr 0 min 15 sec) 
Heartbeat CPU  0 instructions:    9000003 cycles:    6055118 heartbeat IPC: 1.48669 cumulative IPC: 1.48635 (Simulation time: 0 hr 0 min 17 sec) 
Heartbeat CPU  0 instructions:   10000003 cycles:    6727929 heartbeat IPC: 1.48630 cumulative IPC: 1.48634 (Simulation time: 0 hr 0 min 18 sec) 
Heartbeat CPU  0 instructions:   11000003 cycles:    7400595 heartbeat IPC: 1.48662 cumulative IPC: 1.48637 (Simulation time: 0 hr 0 min 20 sec) 
Heartbeat CPU  0 instructions:   12000000 cycles:    8073164 heartbeat IPC: 1.48683 cumulative IPC: 1.48641 (Simulation time: 0 hr 0 min 22 sec) 
Heartbeat CPU  0 instructions:   13000000 cycles:    8750883 heartbeat IPC: 1.47554 cumulative IPC: 1.48556 (Simulation time: 0 hr 0 min 24 sec) 
Heartbeat CPU  0 instructions:   14000002 cycles:    9429925 heartbeat IPC: 1.47267 cumulative IPC: 1.48464 (Simulation time: 0 hr 0 min 26 sec) 
Heartbeat CPU  0 instructions:   15000000 cycles:   10109060 heartbeat IPC: 1.47246 cumulative IPC: 1.48382 (Simulation time: 0 hr 0 min 27 sec) 
Heartbeat CPU  0 instructions:   16000000 cycles:   10788140 heartbeat IPC: 1.47258 cumulative IPC: 1.48311 (Simulation time: 0 hr 0 min 29 sec) 
Heartbeat CPU  0 instructions:   17000002 cycles:   11467251 heartbeat IPC: 1.47252 cumulative IPC: 1.48248 (Simulation time: 0 hr 0 min 31 sec) 
Heartbeat CPU  0 instructions:   18000003 cycles:   12146251 heartbeat IPC: 1.47276 cumulative IPC: 1.48194 (Simulation time: 0 hr 0 min 33 sec) 
Heartbeat CPU  0 instructions:   19000003 cycles:   12825293 heartbeat IPC: 1.47266 cumulative IPC: 1.48145 (Simulation time: 0 hr 0 min 35 sec) 
Heartbeat CPU  0 instructions:   20000000 cycles:   13504466 heartbeat IPC: 1.47237 cumulative IPC: 1.48099 (Simulation time: 0 hr 0 min 37 sec) 
Heartbeat CPU  0 instructions:   21000002 cycles:   14183608 heartbeat IPC: 1.47245 cumulative IPC: 1.48058 (Simulation time: 0 hr 0 min 38 sec) 
Heartbeat CPU  0 instructions:   22000000 cycles:   14862675 heartbeat IPC: 1.47261 cumulative IPC: 1.48022 (Simulation time: 0 hr 0 min 40 sec) 
Heartbeat CPU  0 instructions:   23000000 cycles:   15541776 heartbeat IPC: 1.47254 cumulative IPC: 1.47988 (Simulation time: 0 hr 0 min 42 sec) 
Heartbeat CPU  0 instructions:   24000000 cycles:   16220941 heartbeat IPC: 1.47240 cumulative IPC: 1.47957 (Simulation time: 0 hr 0 min 44 sec) 
Heartbeat CPU  0 instructions:   25000001 cycles:   16900165 heartbeat IPC: 1.47227 cumulative IPC: 1.47928 (Simulation time: 0 hr 0 min 46 sec) 
Heartbeat CPU  0 instructions:   26000001 cycles:   17579240 heartbeat IPC: 1.47259 cumulative IPC: 1.47902 (Simulation time: 0 hr 0 min 48 sec) 
Heartbeat CPU  0 instructions:   27000001 cycles:   18258305 heartbeat IPC: 1.47261 cumulative IPC: 1.47878 (Simulation time: 0 hr 0 min 49 sec) 
Heartbeat CPU  0 instructions:   28000000 cycles:   18936656 heartbeat IPC: 1.47416 cumulative IPC: 1.47861 (Simulation time: 0 hr 0 min 51 sec) 
Heartbeat CPU  0 instructions:   29000002 cycles:   19613271 heartbeat IPC: 1.47795 cumulative IPC: 1.47859 (Simulation time: 0 hr 0 min 53 sec) 
Heartbeat CPU  0 instructions:   30000000 cycles:   20289905 heartbeat IPC: 1.47790 cumulative IPC: 1.47857 (Simulation time: 0 hr 0 min 55 sec) 
Heartbeat CPU  0 instructions:   31000000 cycles:   20966447 heartbeat IPC: 1.47810 cumulative IPC: 1.47855 (Simulation time: 0 hr 0 min 57 sec) 
Heartbeat CPU  0 instructions:   32000000 cycles:   21642984 heartbeat IPC: 1.47812 cumulative IPC: 1.47854 (Simulation time: 0 hr 0 min 58 sec) 
Heartbeat CPU  0 instructions:   33000002 cycles:   22319703 heartbeat IPC: 1.47772 cumulative IPC: 1.47851 (Simulation time: 0 hr 1 min 0 sec) 
Heartbeat CPU  0 instructions:   34000000 cycles:   22996256 heartbeat IPC: 1.47808 cumulative IPC: 1.47850 (Simulation time: 0 hr 1 min 2 sec) 
Heartbeat CPU  0 instructions:   35000002 cycles:   23672947 heartbeat IPC: 1.47778 cumulative IPC: 1.47848 (Simulation time: 0 hr 1 min 4 sec) 
Heartbeat CPU  0 instructions:   36000000 cycles:   24349468 heartbeat IPC: 1.47815 cumulative IPC: 1.47847 (Simulation time: 0 hr 1 min 6 sec) 
Heartbeat CPU  0 instructions:   37000000 cycles:   25026218 heartbeat IPC: 1.47765 cumulative IPC: 1.47845 (Simulation time: 0 hr 1 min 8 sec) 
Heartbeat CPU  0 instructions:   38000000 cycles:   25702828 heartbeat IPC: 1.47796 cumulative IPC: 1.47844 (Simulation time: 0 hr 1 min 9 sec) 
Heartbeat CPU  0 instructions:   39000002 cycles:   26379496 heartbeat IPC: 1.47783 cumulative IPC: 1.47842 (Simulation time: 0 hr 1 min 11 sec) 
Heartbeat CPU  0 instructions:   40000000 cycles:   27056254 heartbeat IPC: 1.47763 cumulative IPC: 1.47840 (Simulation time: 0 hr 1 min 13 sec) 
Heartbeat CPU  0 instructions:   41000000 cycles:   27733077 heartbeat IPC: 1.47749 cumulative IPC: 1.47838 (Simulation time: 0 hr 1 min 15 sec) 
Heartbeat CPU  0 instructions:   42000002 cycles:   28409724 heartbeat IPC: 1.47788 cumulative IPC: 1.47837 (Simulation time: 0 hr 1 min 17 sec) 
Heartbeat CPU  0 instructions:   43000002 cycles:   29086328 heartbeat IPC: 1.47797 cumulative IPC: 1.47836 (Simulation time: 0 hr 1 min 18 sec) 
Heartbeat CPU  0 instructions:   44000000 cycles:   29752590 heartbeat IPC: 1.50091 cumulative IPC: 1.47886 (Simulation time: 0 hr 1 min 20 sec) 
Heartbeat CPU  0 instructions:   45000003 cycles:   30418802 heartbeat IPC: 1.50103 cumulative IPC: 1.47935 (Simulation time: 0 hr 1 min 22 sec) 
Heartbeat CPU  0 instructions:   46000001 cycles:   31084776 heartbeat IPC: 1.50156 cumulative IPC: 1.47982 (Simulation time: 0 hr 1 min 24 sec) 
Heartbeat CPU  0 instructions:   47000000 cycles:   31750918 heartbeat IPC: 1.50118 cumulative IPC: 1.48027 (Simulation time: 0 hr 1 min 26 sec) 
Heartbeat CPU  0 instructions:   48000000 cycles:   32416763 heartbeat IPC: 1.50185 cumulative IPC: 1.48072 (Simulation time: 0 hr 1 min 28 sec) 
Heartbeat CPU  0 instructions:   49000000 cycles:   33082759 heartbeat IPC: 1.50151 cumulative IPC: 1.48113 (Simulation time: 0 hr 1 min 30 sec) 
Heartbeat CPU  0 instructions:   50000003 cycles:   33748911 heartbeat IPC: 1.50116 cumulative IPC: 1.48153 (Simulation time: 0 hr 1 min 31 sec) 
Heartbeat CPU  0 instructions:   51000003 cycles:   34414947 heartbeat IPC: 1.50142 cumulative IPC: 1.48191 (Simulation time: 0 hr 1 min 33 sec) 
Heartbeat CPU  0 instructions:   52000000 cycles:   35081135 heartbeat IPC: 1.50107 cumulative IPC: 1.48228 (Simulation time: 0 hr 1 min 35 sec) 
Heartbeat CPU  0 instructions:   53000003 cycles:   35747193 heartbeat IPC: 1.50138 cumulative IPC: 1.48263 (Simulation time: 0 hr 1 min 37 sec) 
Heartbeat CPU  0 instructions:   54000000 cycles:   36412990 heartbeat IPC: 1.50195 cumulative IPC: 1.48299 (Simulation time: 0 hr 1 min 39 sec) 
Heartbeat CPU  0 instructions:   55000000 cycles:   37079034 heartbeat IPC: 1.50140 cumulative IPC: 1.48332 (Simulation time: 0 hr 1 min 41 sec) 
Heartbeat CPU  0 instructions:   56000000 cycles:   37740594 heartbeat IPC: 1.51158 cumulative IPC: 1.48381 (Simulation time: 0 hr 1 min 42 sec) 
Heartbeat CPU  0 instructions:   57000003 cycles:   38401550 heartbeat IPC: 1.51296 cumulative IPC: 1.48432 (Simulation time: 0 hr 1 min 44 sec) 
Heartbeat CPU  0 instructions:   58000000 cycles:   39062749 heartbeat IPC: 1.51240 cumulative IPC: 1.48479 (Simulation time: 0 hr 1 min 46 sec) 
Heartbeat CPU  0 instructions:   59000000 cycles:   39723818 heartbeat IPC: 1.51270 cumulative IPC: 1.48526 (Simulation time: 0 hr 1 min 48 sec) 
Heartbeat CPU  0 instructions:   60000000 cycles:   40384851 heartbeat IPC: 1.51278 cumulative IPC: 1.48571 (Simulation time: 0 hr 1 min 50 sec) 
Heartbeat CPU  0 instructions:   61000001 cycles:   41046366 heartbeat IPC: 1.51168 cumulative IPC: 1.48612 (Simulation time: 0 hr 1 min 52 sec) 
Heartbeat CPU  0 instructions:   62000000 cycles:   41707501 heartbeat IPC: 1.51255 cumulative IPC: 1.48654 (Simulation time: 0 hr 1 min 54 sec) 
Heartbeat CPU  0 instructions:   63000001 cycles:   42368436 heartbeat IPC: 1.51301 cumulative IPC: 1.48696 (Simulation time: 0 hr 1 min 55 sec) 
Heartbeat CPU  0 instructions:   64000000 cycles:   43029460 heartbeat IPC: 1.51280 cumulative IPC: 1.48735 (Simulation time: 0 hr 1 min 57 sec) 
Heartbeat CPU  0 instructions:   65000003 cycles:   43690620 heartbeat IPC: 1.51250 cumulative IPC: 1.48773 (Simulation time: 0 hr 1 min 59 sec) 
Heartbeat CPU  0 instructions:   66000000 cycles:   44351604 heartbeat IPC: 1.51289 cumulative IPC: 1.48811 (Simulation time: 0 hr 2 min 1 sec) 
Heartbeat CPU  0 instructions:   67000000 cycles:   45012888 heartbeat IPC: 1.51221 cumulative IPC: 1.48846 (Simulation time: 0 hr 2 min 3 sec) 
Heartbeat CPU  0 instructions:   68000000 cycles:   45682933 heartbeat IPC: 1.49244 cumulative IPC: 1.48852 (Simulation time: 0 hr 2 min 5 sec) 
Heartbeat CPU  0 instructions:   69000002 cycles:   46353608 heartbeat IPC: 1.49104 cumulative IPC: 1.48856 (Simulation time: 0 hr 2 min 6 sec) 
Heartbeat CPU  0 instructions:   70000001 cycles:   47024604 heartbeat IPC: 1.49032 cumulative IPC: 1.48858 (Simulation time: 0 hr 2 min 8 sec) 
Heartbeat CPU  0 instructions:   71000002 cycles:   47695195 heartbeat IPC: 1.49122 cumulative IPC: 1.48862 (Simulation time: 0 hr 2 min 10 sec) 
Heartbeat CPU  0 instructions:   72000000 cycles:   48365951 heartbeat IPC: 1.49085 cumulative IPC: 1.48865 (Simulation time: 0 hr 2 min 12 sec) 
Heartbeat CPU  0 instructions:   73000000 cycles:   49036735 heartbeat IPC: 1.49079 cumulative IPC: 1.48868 (Simulation time: 0 hr 2 min 14 sec) 
Heartbeat CPU  0 instructions:   74000000 cycles:   49707358 heartbeat IPC: 1.49115 cumulative IPC: 1.48871 (Simulation time: 0 hr 2 min 16 sec) 
Heartbeat CPU  0 instructions:   75000001 cycles:   50378340 heartbeat IPC: 1.49035 cumulative IPC: 1.48874 (Simulation time: 0 hr 2 min 18 sec) 
Heartbeat CPU  0 instructions:   76000000 cycles:   51048797 heartbeat IPC: 1.49152 cumulative IPC: 1.48877 (Simulation time: 0 hr 2 min 19 sec) 
Heartbeat CPU  0 instructions:   77000000 cycles:   51719867 heartbeat IPC: 1.49016 cumulative IPC: 1.48879 (Simulation time: 0 hr 2 min 21 sec) 
Heartbeat CPU  0 instructions:   78000003 cycles:   52390583 heartbeat IPC: 1.49095 cumulative IPC: 1.48882 (Simulation time: 0 hr 2 min 23 sec) 
Heartbeat CPU  0 instructions:   79000002 cycles:   53061139 heartbeat IPC: 1.49130 cumulative IPC: 1.48885 (Simulation time: 0 hr 2 min 25 sec) 
Heartbeat CPU  0 instructions:   80000000 cycles:   53734396 heartbeat IPC: 1.48531 cumulative IPC: 1.48880 (Simulation time: 0 hr 2 min 27 sec) 
Heartbeat CPU  0 instructions:   81000003 cycles:   54408566 heartbeat IPC: 1.48331 cumulative IPC: 1.48874 (Simulation time: 0 hr 2 min 28 sec) 
Heartbeat CPU  0 instructions:   82000001 cycles:   55082348 heartbeat IPC: 1.48416 cumulative IPC: 1.48868 (Simulation time: 0 hr 2 min 30 sec) 
Heartbeat CPU  0 instructions:   83000002 cycles:   55756403 heartbeat IPC: 1.48356 cumulative IPC: 1.48862 (Simulation time: 0 hr 2 min 32 sec) 
Heartbeat CPU  0 instructions:   84000000 cycles:   56429964 heartbeat IPC: 1.48464 cumulative IPC: 1.48857 (Simulation time: 0 hr 2 min 34 sec) 
Heartbeat CPU  0 instructions:   85000000 cycles:   57103993 heartbeat IPC: 1.48362 cumulative IPC: 1.48851 (Simulation time: 0 hr 2 min 36 sec) 
Heartbeat CPU  0 instructions:   86000001 cycles:   57777920 heartbeat IPC: 1.48384 cumulative IPC: 1.48846 (Simulation time: 0 hr 2 min 38 sec) 
Heartbeat CPU  0 instructions:   87000000 cycles:   58451784 heartbeat IPC: 1.48398 cumulative IPC: 1.48841 (Simulation time: 0 hr 2 min 40 sec) 
Heartbeat CPU  0 instructions:   88000000 cycles:   59125817 heartbeat IPC: 1.48361 cumulative IPC: 1.48835 (Simulation time: 0 hr 2 min 41 sec) 
Heartbeat CPU  0 instructions:   89000002 cycles:   59799768 heartbeat IPC: 1.48379 cumulative IPC: 1.48830 (Simulation time: 0 hr 2 min 43 sec) 
Heartbeat CPU  0 instructions:   90000000 cycles:   60473435 heartbeat IPC: 1.48441 cumulative IPC: 1.48826 (Simulation time: 0 hr 2 min 45 sec) 
Heartbeat CPU  0 instructions:   91000000 cycles:   61147146 heartbeat IPC: 1.48432 cumulative IPC: 1.48821 (Simulation time: 0 hr 2 min 47 sec) 
Heartbeat CPU  0 instructions:   92000000 cycles:   61823764 heartbeat IPC: 1.47794 cumulative IPC: 1.48810 (Simulation time: 0 hr 2 min 49 sec) 
Heartbeat CPU  0 instructions:   93000001 cycles:   62502808 heartbeat IPC: 1.47266 cumulative IPC: 1.48793 (Simulation time: 0 hr 2 min 51 sec) 
Heartbeat CPU  0 instructions:   94000001 cycles:   63181778 heartbeat IPC: 1.47282 cumulative IPC: 1.48777 (Simulation time: 0 hr 2 min 52 sec) 
Heartbeat CPU  0 instructions:   95000001 cycles:   63860825 heartbeat IPC: 1.47265 cumulative IPC: 1.48761 (Simulation time: 0 hr 2 min 54 sec) 
Heartbeat CPU  0 instructions:   96000000 cycles:   64539824 heartbeat IPC: 1.47275 cumulative IPC: 1.48745 (Simulation time: 0 hr 2 min 56 sec) 
Heartbeat CPU  0 instructions:   97000000 cycles:   65218868 heartbeat IPC: 1.47266 cumulative IPC: 1.48730 (Simulation time: 0 hr 2 min 58 sec) 
Heartbeat CPU  0 instructions:   98000000 cycles:   65897973 heartbeat IPC: 1.47253 cumulative IPC: 1.48715 (Simulation time: 0 hr 3 min 0 sec) 
Heartbeat CPU  0 instructions:   99000000 cycles:   66577020 heartbeat IPC: 1.47265 cumulative IPC: 1.48700 (Simulation time: 0 hr 3 min 2 sec) 
Heartbeat CPU  0 instructions:  100000000 cycles:   67256058 heartbeat IPC: 1.47267 cumulative IPC: 1.48685 (Simulation time: 0 hr 3 min 3 sec) 

Warmup complete CPU  0 instructions:  100000001 cycles:   67256059 (Simulation time: 0 hr 3 min 3 sec) 

Heartbeat CPU  0 instructions:  101000000 cycles:   68394978 heartbeat IPC: 0.87802 cumulative IPC: 0.87802 (Simulation time: 0 hr 3 min 5 sec) 
Heartbeat CPU  0 instructions:  102000002 cycles:   69530943 heartbeat IPC: 0.88031 cumulative IPC: 0.87917 (Simulation time: 0 hr 3 min 7 sec) 
Heartbeat CPU  0 instructions:  103000001 cycles:   70672773 heartbeat IPC: 0.87579 cumulative IPC: 0.87804 (Simulation time: 0 hr 3 min 10 sec) 
Heartbeat CPU  0 instructions:  104000000 cycles:   71821913 heartbeat IPC: 0.87022 cumulative IPC: 0.87607 (Simulation time: 0 hr 3 min 12 sec) 
Heartbeat CPU  0 instructions:  105000001 cycles:   72980816 heartbeat IPC: 0.86289 cumulative IPC: 0.87340 (Simulation time: 0 hr 3 min 14 sec) 
Heartbeat CPU  0 instructions:  106000001 cycles:   74129210 heartbeat IPC: 0.87078 cumulative IPC: 0.87296 (Simulation time: 0 hr 3 min 16 sec) 
Heartbeat CPU  0 instructions:  107000002 cycles:   75521212 heartbeat IPC: 0.71839 cumulative IPC: 0.84693 (Simulation time: 0 hr 3 min 18 sec) 
Heartbeat CPU  0 instructions:  108000000 cycles:   76742459 heartbeat IPC: 0.81883 cumulative IPC: 0.84331 (Simulation time: 0 hr 3 min 20 sec) 
Heartbeat CPU  0 instructions:  109000000 cycles:   77922345 heartbeat IPC: 0.84754 cumulative IPC: 0.84378 (Simulation time: 0 hr 3 min 22 sec) 
Heartbeat CPU  0 instructions:  110000002 cycles:   79087158 heartbeat IPC: 0.85851 cumulative IPC: 0.84523 (Simulation time: 0 hr 3 min 24 sec) 
Heartbeat CPU  0 instructions:  111000000 cycles:   80243706 heartbeat IPC: 0.86464 cumulative IPC: 0.84696 (Simulation time: 0 hr 3 min 26 sec) 
Heartbeat CPU  0 instructions:  112000000 cycles:   81399668 heartbeat IPC: 0.86508 cumulative IPC: 0.84844 (Simulation time: 0 hr 3 min 28 sec) 
Heartbeat CPU  0 instructions:  113000000 cycles:   82554041 heartbeat IPC: 0.86627 cumulative IPC: 0.84979 (Simulation time: 0 hr 3 min 30 sec) 
Heartbeat CPU  0 instructions:  114000002 cycles:   83709930 heartbeat IPC: 0.86514 cumulative IPC: 0.85086 (Simulation time: 0 hr 3 min 32 sec) 
Heartbeat CPU  0 instructions:  115000002 cycles:   84864627 heartbeat IPC: 0.86603 cumulative IPC: 0.85186 (Simulation time: 0 hr 3 min 34 sec) 
Heartbeat CPU  0 instructions:  116000000 cycles:   86022081 heartbeat IPC: 0.86396 cumulative IPC: 0.85260 (Simulation time: 0 hr 3 min 36 sec) 
Heartbeat CPU  0 instructions:  117000002 cycles:   87185560 heartbeat IPC: 0.85949 cumulative IPC: 0.85301 (Simulation time: 0 hr 3 min 38 sec) 
Heartbeat CPU  0 instructions:  118000000 cycles:   88343458 heartbeat IPC: 0.86363 cumulative IPC: 0.85359 (Simulation time: 0 hr 3 min 41 sec) 
Heartbeat CPU  0 instructions:  119000000 cycles:   89503974 heartbeat IPC: 0.86169 cumulative IPC: 0.85401 (Simulation time: 0 hr 3 min 43 sec) 
Heartbeat CPU  0 instructions:  120000000 cycles:   90655445 heartbeat IPC: 0.86845 cumulative IPC: 0.85472 (Simulation time: 0 hr 3 min 45 sec) 
Heartbeat CPU  0 instructions:  121000002 cycles:   91815189 heartbeat IPC: 0.86226 cumulative IPC: 0.85508 (Simulation time: 0 hr 3 min 47 sec) 
Heartbeat CPU  0 instructions:  122000002 cycles:   92973545 heartbeat IPC: 0.86329 cumulative IPC: 0.85545 (Simulation time: 0 hr 3 min 49 sec) 
Heartbeat CPU  0 instructions:  123000003 cycles:   93870505 heartbeat IPC: 1.11488 cumulative IPC: 0.86419 (Simulation time: 0 hr 3 min 50 sec) 
Heartbeat CPU  0 instructions:  124000000 cycles:   94804724 heartbeat IPC: 1.07041 cumulative IPC: 0.87119 (Simulation time: 0 hr 3 min 52 sec) 
Heartbeat CPU  0 instructions:  125000000 cycles:   95872834 heartbeat IPC: 0.93623 cumulative IPC: 0.87361 (Simulation time: 0 hr 3 min 54 sec) 
Heartbeat CPU  0 instructions:  126000000 cycles:   96911155 heartbeat IPC: 0.96309 cumulative IPC: 0.87675 (Simulation time: 0 hr 3 min 55 sec) 
Heartbeat CPU  0 instructions:  127000001 cycles:   98123901 heartbeat IPC: 0.82458 cumulative IPC: 0.87470 (Simulation time: 0 hr 3 min 57 sec) 
Heartbeat CPU  0 instructions:  128000000 cycles:   99395828 heartbeat IPC: 0.78621 cumulative IPC: 0.87119 (Simulation time: 0 hr 3 min 59 sec) 
Heartbeat CPU  0 instructions:  129000002 cycles:  100658237 heartbeat IPC: 0.79214 cumulative IPC: 0.86821 (Simulation time: 0 hr 4 min 1 sec) 
Heartbeat CPU  0 instructions:  130000002 cycles:  101956393 heartbeat IPC: 0.77032 cumulative IPC: 0.86455 (Simulation time: 0 hr 4 min 2 sec) 
Heartbeat CPU  0 instructions:  131000003 cycles:  103236985 heartbeat IPC: 0.78089 cumulative IPC: 0.86157 (Simulation time: 0 hr 4 min 4 sec) 
Heartbeat CPU  0 instructions:  132000000 cycles:  104527948 heartbeat IPC: 0.77461 cumulative IPC: 0.85856 (Simulation time: 0 hr 4 min 6 sec) 
Heartbeat CPU  0 instructions:  133000000 cycles:  105815648 heartbeat IPC: 0.77658 cumulative IPC: 0.85582 (Simulation time: 0 hr 4 min 8 sec) 
Heartbeat CPU  0 instructions:  134000001 cycles:  107102271 heartbeat IPC: 0.77723 cumulative IPC: 0.85328 (Simulation time: 0 hr 4 min 10 sec) 
Heartbeat CPU  0 instructions:  135000001 cycles:  108380592 heartbeat IPC: 0.78228 cumulative IPC: 0.85107 (Simulation time: 0 hr 4 min 11 sec) 
Heartbeat CPU  0 instructions:  136000000 cycles:  109695838 heartbeat IPC: 0.76031 cumulative IPC: 0.84826 (Simulation time: 0 hr 4 min 13 sec) 
Heartbeat CPU  0 instructions:  137000002 cycles:  111002611 heartbeat IPC: 0.76525 cumulative IPC: 0.84578 (Simulation time: 0 hr 4 min 15 sec) 
Heartbeat CPU  0 instructions:  138000003 cycles:  112328890 heartbeat IPC: 0.75399 cumulative IPC: 0.84308 (Simulation time: 0 hr 4 min 17 sec) 
Heartbeat CPU  0 instructions:  139000003 cycles:  113615159 heartbeat IPC: 0.77744 cumulative IPC: 0.84126 (Simulation time: 0 hr 4 min 19 sec) 
Heartbeat CPU  0 instructions:  140000000 cycles:  114945744 heartbeat IPC: 0.75155 cumulative IPC: 0.83876 (Simulation time: 0 hr 4 min 20 sec) 
Heartbeat CPU  0 instructions:  141000000 cycles:  116255635 heartbeat IPC: 0.76342 cumulative IPC: 0.83674 (Simulation time: 0 hr 4 min 22 sec) 
Heartbeat CPU  0 instructions:  142000001 cycles:  117550932 heartbeat IPC: 0.77202 cumulative IPC: 0.83508 (Simulation time: 0 hr 4 min 24 sec) 
Heartbeat CPU  0 instructions:  143000002 cycles:  118884192 heartbeat IPC: 0.75004 cumulative IPC: 0.83288 (Simulation time: 0 hr 4 min 26 sec) 
Heartbeat CPU  0 instructions:  144000000 cycles:  120191959 heartbeat IPC: 0.76466 cumulative IPC: 0.83119 (Simulation time: 0 hr 4 min 27 sec) 
Heartbeat CPU  0 instructions:  145000002 cycles:  121487509 heartbeat IPC: 0.77187 cumulative IPC: 0.82978 (Simulation time: 0 hr 4 min 29 sec) 
Heartbeat CPU  0 instructions:  146000000 cycles:  122810888 heartbeat IPC: 0.75564 cumulative IPC: 0.82801 (Simulation time: 0 hr 4 min 31 sec) 
Heartbeat CPU  0 instructions:  147000003 cycles:  124111887 heartbeat IPC: 0.76864 cumulative IPC: 0.82665 (Simulation time: 0 hr 4 min 33 sec) 
Heartbeat CPU  0 instructions:  148000000 cycles:  125545767 heartbeat IPC: 0.69741 cumulative IPC: 0.82347 (Simulation time: 0 hr 4 min 35 sec) 
Heartbeat CPU  0 instructions:  149000000 cycles:  127161511 heartbeat IPC: 0.61891 cumulative IPC: 0.81796 (Simulation time: 0 hr 4 min 37 sec) 
Heartbeat CPU  0 instructions:  150000001 cycles:  128775252 heartbeat IPC: 0.61968 cumulative IPC: 0.81275 (Simulation time: 0 hr 4 min 39 sec) 
Heartbeat CPU  0 instructions:  151000001 cycles:  130403086 heartbeat IPC: 0.61431 cumulative IPC: 0.80764 (Simulation time: 0 hr 4 min 40 sec) 
Heartbeat CPU  0 instructions:  152000000 cycles:  131970524 heartbeat IPC: 0.63798 cumulative IPC: 0.80353 (Simulation time: 0 hr 4 min 42 sec) 
Heartbeat CPU  0 instructions:  153000002 cycles:  133631287 heartbeat IPC: 0.60213 cumulative IPC: 0.79849 (Simulation time: 0 hr 4 min 44 sec) 
Heartbeat CPU  0 instructions:  154000003 cycles:  135201054 heartbeat IPC: 0.63704 cumulative IPC: 0.79476 (Simulation time: 0 hr 4 min 46 sec) 
Heartbeat CPU  0 instructions:  155000000 cycles:  136822268 heartbeat IPC: 0.61682 cumulative IPC: 0.79061 (Simulation time: 0 hr 4 min 48 sec) 
Heartbeat CPU  0 instructions:  156000000 cycles:  138421355 heartbeat IPC: 0.62536 cumulative IPC: 0.78690 (Simulation time: 0 hr 4 min 50 sec) 
Heartbeat CPU  0 instructions:  157000000 cycles:  140101958 heartbeat IPC: 0.59502 cumulative IPC: 0.78247 (Simulation time: 0 hr 4 min 52 sec) 
Heartbeat CPU  0 instructions:  158000001 cycles:  141669980 heartbeat IPC: 0.63775 cumulative IPC: 0.77942 (Simulation time: 0 hr 4 min 54 sec) 
Heartbeat CPU  0 instructions:  159000002 cycles:  143294547 heartbeat IPC: 0.61555 cumulative IPC: 0.77592 (Simulation time: 0 hr 4 min 56 sec) 
Heartbeat CPU  0 instructions:  160000000 cycles:  144883109 heartbeat IPC: 0.62950 cumulative IPC: 0.77293 (Simulation time: 0 hr 4 min 58 sec) 
Heartbeat CPU  0 instructions:  161000002 cycles:  146529543 heartbeat IPC: 0.60737 cumulative IPC: 0.76949 (Simulation time: 0 hr 4 min 59 sec) 
Heartbeat CPU  0 instructions:  162000003 cycles:  148117127 heartbeat IPC: 0.62989 cumulative IPC: 0.76675 (Simulation time: 0 hr 5 min 1 sec) 
Heartbeat CPU  0 instructions:  163000003 cycles:  149806665 heartbeat IPC: 0.59188 cumulative IPC: 0.76317 (Simulation time: 0 hr 5 min 3 sec) 
Heartbeat CPU  0 instructions:  164000000 cycles:  151400162 heartbeat IPC: 0.62755 cumulative IPC: 0.76060 (Simulation time: 0 hr 5 min 5 sec) 
Heartbeat CPU  0 instructions:  165000000 cycles:  153039223 heartbeat IPC: 0.61011 cumulative IPC: 0.75772 (Simulation time: 0 hr 5 min 7 sec) 
Heartbeat CPU  0 instructions:  166000001 cycles:  154615902 heartbeat IPC: 0.63425 cumulative IPC: 0.75550 (Simulation time: 0 hr 5 min 9 sec) 
Heartbeat CPU  0 instructions:  167000001 cycles:  156255020 heartbeat IPC: 0.61008 cumulative IPC: 0.75282 (Simulation time: 0 hr 5 min 11 sec) 
Heartbeat CPU  0 instructions:  168000000 cycles:  157838091 heartbeat IPC: 0.63168 cumulative IPC: 0.75070 (Simulation time: 0 hr 5 min 13 sec) 
Heartbeat CPU  0 instructions:  169000002 cycles:  159460868 heartbeat IPC: 0.61623 cumulative IPC: 0.74833 (Simulation time: 0 hr 5 min 15 sec) 
Heartbeat CPU  0 instructions:  170000003 cycles:  161062507 heartbeat IPC: 0.62436 cumulative IPC: 0.74622 (Simulation time: 0 hr 5 min 16 sec) 
Heartbeat CPU  0 instructions:  171000000 cycles:  162666574 heartbeat IPC: 0.62341 cumulative IPC: 0.74415 (Simulation time: 0 hr 5 min 18 sec) 
Heartbeat CPU  0 instructions:  172000000 cycles:  164263371 heartbeat IPC: 0.62625 cumulative IPC: 0.74221 (Simulation time: 0 hr 5 min 20 sec) 
Heartbeat CPU  0 instructions:  173000002 cycles:  165854068 heartbeat IPC: 0.62866 cumulative IPC: 0.74038 (Simulation time: 0 hr 5 min 22 sec) 
Heartbeat CPU  0 instructions:  174000001 cycles:  167490249 heartbeat IPC: 0.61118 cumulative IPC: 0.73827 (Simulation time: 0 hr 5 min 24 sec) 
Heartbeat CPU  0 instructions:  175000002 cycles:  169040825 heartbeat IPC: 0.64492 cumulative IPC: 0.73685 (Simulation time: 0 hr 5 min 26 sec) 
Heartbeat CPU  0 instructions:  176000000 cycles:  170636558 heartbeat IPC: 0.62667 cumulative IPC: 0.73515 (Simulation time: 0 hr 5 min 28 sec) 
Heartbeat CPU  0 instructions:  177000003 cycles:  172206667 heartbeat IPC: 0.63690 cumulative IPC: 0.73368 (Simulation time: 0 hr 5 min 30 sec) 
Heartbeat CPU  0 instructions:  178000003 cycles:  173817015 heartbeat IPC: 0.62098 cumulative IPC: 0.73198 (Simulation time: 0 hr 5 min 31 sec) 
Heartbeat CPU  0 instructions:  179000001 cycles:  175390709 heartbeat IPC: 0.63545 cumulative IPC: 0.73057 (Simulation time: 0 hr 5 min 33 sec) 
Heartbeat CPU  0 instructions:  180000000 cycles:  177038004 heartbeat IPC: 0.60706 cumulative IPC: 0.72872 (Simulation time: 0 hr 5 min 35 sec) 
Heartbeat CPU  0 instructions:  181000001 cycles:  178630296 heartbeat IPC: 0.62803 cumulative IPC: 0.72728 (Simulation time: 0 hr 5 min 37 sec) 
Heartbeat CPU  0 instructions:  182000001 cycles:  180270823 heartbeat IPC: 0.60956 cumulative IPC: 0.72557 (Simulation time: 0 hr 5 min 39 sec) 
Heartbeat CPU  0 instructions:  183000002 cycles:  181816830 heartbeat IPC: 0.64683 cumulative IPC: 0.72451 (Simulation time: 0 hr 5 min 41 sec) 
Heartbeat CPU  0 instructions:  184000000 cycles:  183502128 heartbeat IPC: 0.59337 cumulative IPC: 0.72261 (Simulation time: 0 hr 5 min 43 sec) 
Heartbeat CPU  0 instructions:  185000003 cycles:  185053825 heartbeat IPC: 0.64446 cumulative IPC: 0.72158 (Simulation time: 0 hr 5 min 45 sec) 
Heartbeat CPU  0 instructions:  186000003 cycles:  186707489 heartbeat IPC: 0.60472 cumulative IPC: 0.71996 (Simulation time: 0 hr 5 min 47 sec) 
Heartbeat CPU  0 instructions:  187000000 cycles:  188305060 heartbeat IPC: 0.62595 cumulative IPC: 0.71872 (Simulation time: 0 hr 5 min 49 sec) 
Heartbeat CPU  0 instructions:  188000000 cycles:  189966789 heartbeat IPC: 0.60178 cumulative IPC: 0.71713 (Simulation time: 0 hr 5 min 50 sec) 
Heartbeat CPU  0 instructions:  189000001 cycles:  191519889 heartbeat IPC: 0.64387 cumulative IPC: 0.71622 (Simulation time: 0 hr 5 min 52 sec) 
Heartbeat CPU  0 instructions:  190000001 cycles:  193189774 heartbeat IPC: 0.59884 cumulative IPC: 0.71466 (Simulation time: 0 hr 5 min 54 sec) 
Heartbeat CPU  0 instructions:  191000002 cycles:  194770668 heartbeat IPC: 0.63255 cumulative IPC: 0.71364 (Simulation time: 0 hr 5 min 56 sec) 
Heartbeat CPU  0 instructions:  192000000 cycles:  196407672 heartbeat IPC: 0.61087 cumulative IPC: 0.71234 (Simulation time: 0 hr 5 min 58 sec) 
Heartbeat CPU  0 instructions:  193000003 cycles:  197997929 heartbeat IPC: 0.62883 cumulative IPC: 0.71133 (Simulation time: 0 hr 6 min 0 sec) 
Heartbeat CPU  0 instructions:  194000003 cycles:  199658111 heartbeat IPC: 0.60234 cumulative IPC: 0.70996 (Simulation time: 0 hr 6 min 2 sec) 
Heartbeat CPU  0 instructions:  195000000 cycles:  201211231 heartbeat IPC: 0.64386 cumulative IPC: 0.70919 (Simulation time: 0 hr 6 min 4 sec) 
Heartbeat CPU  0 instructions:  196000000 cycles:  202843136 heartbeat IPC: 0.61278 cumulative IPC: 0.70803 (Simulation time: 0 hr 6 min 6 sec) 
Heartbeat CPU  0 instructions:  197000001 cycles:  204432409 heartbeat IPC: 0.62922 cumulative IPC: 0.70712 (Simulation time: 0 hr 6 min 7 sec) 
Heartbeat CPU  0 instructions:  198000001 cycles:  206076896 heartbeat IPC: 0.60809 cumulative IPC: 0.70595 (Simulation time: 0 hr 6 min 9 sec) 
Heartbeat CPU  0 instructions:  199000002 cycles:  207650493 heartbeat IPC: 0.63549 cumulative IPC: 0.70516 (Simulation time: 0 hr 6 min 11 sec) 
Heartbeat CPU  0 instructions:  200000000 cycles:  209293362 heartbeat IPC: 0.60869 cumulative IPC: 0.70404 (Simulation time: 0 hr 6 min 13 sec) 
Finished CPU 0 instructions: 100000001 cycles: 142037311 cumulative IPC: 0.70404 (Simulation time: 0 hr 6 min 13 sec) 

ChampSim completed all CPUs

[ROI Statistics]
Core_0_instructions 100000001
Core_0_cycles 142037311
Core_0_IPC 0.70404

Core_0_branch_prediction_accuracy 99.52414
Core_0_branch_MPKI 0.08716
Core_0_average_ROB_occupancy_at_mispredict 253.74598

Core_0_L1D_total_access 51256070
Core_0_L1D_total_hit 48231851
Core_0_L1D_total_miss 3024219
Core_0_L1D_loads 26814326
Core_0_L1D_load_hit 25532008
Core_0_L1D_load_miss 1282318
Core_0_L1D_RFOs 6122320
Core_0_L1D_RFO_hit 6122299
Core_0_L1D_RFO_miss 21
Core_0_L1D_prefetches 18319424
Core_0_L1D_prefetch_hit 16577544
Core_0_L1D_prefetch_miss 1741880
Core_0_L1D_writebacks 0
Core_0_L1D_writeback_hit 0
Core_0_L1D_writeback_miss 0
Core_0_L1D_prefetch_requested 80451889
Core_0_L1D_prefetch_issued 69962419
Core_0_L1D_prefetch_useful 1114961
Core_0_L1D_prefetch_useless 3514627
Core_0_L1D_prefetch_late 605682
Core_0_L1D_average_miss_latency 29612236.29893

Core_0_L1I_total_access 21148900
Core_0_L1I_total_hit 21148823
Core_0_L1I_total_miss 77
Core_0_L1I_loads 21148900
Core_0_L1I_load_hit 21148823
Core_0_L1I_load_miss 77
Core_0_L1I_RFOs 0
Core_0_L1I_RFO_hit 0
Core_0_L1I_RFO_miss 0
Core_0_L1I_prefetches 0
Core_0_L1I_prefetch_hit 0
Core_0_L1I_prefetch_miss 0
Core_0_L1I_writebacks 0
Core_0_L1I_writeback_hit 0
Core_0_L1I_writeback_miss 0
Core_0_L1I_prefetch_requested 0
Core_0_L1I_prefetch_issued 0
Core_0_L1I_prefetch_useful 0
Core_0_L1I_prefetch_useless 0
Core_0_L1I_prefetch_late 0
Core_0_L1I_average_miss_latency 226.63636

Core_0_L2C_total_access 3703577
Core_0_L2C_total_hit 1668018
Core_0_L2C_total_miss 2035559
Core_0_L2C_loads 676711
Core_0_L2C_load_hit 527887
Core_0_L2C_load_miss 148824
Core_0_L2C_RFOs 21
Core_0_L2C_RFO_hit 0
Core_0_L2C_RFO_miss 21
Core_0_L2C_prefetches 2347558
Core_0_L2C_prefetch_hit 460971
Core_0_L2C_prefetch_miss 1886587
Core_0_L2C_writebacks 679287
Core_0_L2C_writeback_hit 679160
Core_0_L2C_writeback_miss 127
Core_0_L2C_prefetch_requested 0
Core_0_L2C_prefetch_issued 0
Core_0_L2C_prefetch_useful 305672
Core_0_L2C_prefetch_useless 2306145
Core_0_L2C_prefetch_late 0
Core_0_L2C_average_miss_latency 368.26059

Core_0_LLC_total_access 2711004
Core_0_LLC_total_hit 115979
Core_0_LLC_total_miss 2595025
Core_0_LLC_loads 148824
Core_0_LLC_load_hit 45244
Core_0_LLC_load_miss 103580
Core_0_LLC_RFOs 21
Core_0_LLC_RFO_hit 1
Core_0_LLC_RFO_miss 20
Core_0_LLC_prefetches 1886587
Core_0_LLC_prefetch_hit 59027
Core_0_LLC_prefetch_miss 1827560
Core_0_LLC_writebacks 675572
Core_0_LLC_writeback_hit 11707
Core_0_LLC_writeback_miss 663865
Core_0_LLC_prefetch_requested 0
Core_0_LLC_prefetch_issued 0
Core_0_LLC_prefetch_useful 58423
Core_0_LLC_prefetch_useless 2307784
Core_0_LLC_prefetch_late 0
Core_0_LLC_average_miss_latency 264.79517

Core_0_major_page_fault 0
Core_0_minor_page_fault 80857

CPU 0 L1D next line prefetcher final stats
Channel_0_RQ_row_buffer_hit 441471
Channel_0_RQ_row_buffer_miss 1489689
Channel_0_WQ_row_buffer_hit 114448
Channel_0_WQ_row_buffer_miss 533807
Channel_0_WQ_full 0
Channel_0_dbus_congested 1055841

avg_congested_cycle 10
