*************************************************
   ChampSim Multicore Out-of-Order Simulator
   Last compiled: Dec 25 2023 13:38:56
*************************************************

trace_0 ./test_trace/459.GemsFDTD-1320B.champsimtrace.xz
CPU 0 L1D next line prefetcher
CPU 0 L2C IP-based stride prefetcher
Initialize SRRIP state
LLC Next Line Prefetcher
warmup_instructions 100000000
simulation_instructions 100000000
champsim_seed 264

num_cpus 1
cpu_freq 4000
dram_io_freq 2400
page_size 4096
block_size 64
max_read_per_cycle 8
max_fill_per_cycle 1
dram_channels 1
dram_ranks 1
dram_banks 8
dram_rows 65536
dram_columns 128
dram_row_size 8
dram_size 4096
dram_pages 1048576

fetch_width 6
decode_width 6
exec_width 4
lq_width 2
sq_width 2
retire_width 4
scheduler_size 128
branch_mispredict_penalty 20
rob_size 256
lq_size 72
sq_size 56
num_instr_destinations_sparc 4
num_instr_destinations 2
num_instr_sources 4

itlb_set 16
itlb_way 8
itlb_rq_size 16
itlb_wq_size 16
itlb_pq_size 0
itlb_mshr_size 8
itlb_latency 1

dtlb_set 16
dtlb_way 4
dtlb_rq_size 16
dtlb_wq_size 16
dtlb_pq_size 0
dtlb_mshr_size 8
dtlb_latency 1

stlb_set 128
stlb_way 12
stlb_rq_size 32
stlb_wq_size 32
stlb_pq_size 0
stlb_mshr_size 16
stlb_latency 8

l1i_size 32
l1i_set 64
l1i_way 8
l1i_rq_size 64
l1i_wq_size 64
l1i_pq_size 8
l1i_mshr_size 8
l1i_latency 1

l1d_size 32
l1d_set 64
l1d_way 8
l1d_rq_size 64
l1d_wq_size 64
l1d_pq_size 8
l1d_mshr_size 16
l1d_latency 4

l2c_size 512
l2c_set 1024
l2c_way 8
l2c_rq_size 32
l2c_wq_size 32
l2c_pq_size 16
l2c_mshr_size 32
l2c_latency 10

llc_size 2048
llc_set 2048
llc_way 16
llc_rq_size 32
llc_wq_size 32
llc_pq_size 32
llc_mshr_size 64
llc_latency 20

dram_channel_width 8
dram_wq_size 64
dram_rq_size 64
tRP 15
tRCD 15
tCAS 12.5
dram_dbus_turn_around_time 30
dram_write_high_wm 56
dram_write_low_wm 48
min_dram_writes_per_switch 16
dram_mtps 2400
dram_dbus_return_time 13


Heartbeat CPU  0 instructions:    1000000 cycles:     673302 heartbeat IPC: 1.48522 cumulative IPC: 1.48522 (Simulation time: 0 hr 0 min 2 sec) 
Heartbeat CPU  0 instructions:    2000003 cycles:    1346049 heartbeat IPC: 1.48645 cumulative IPC: 1.48583 (Simulation time: 0 hr 0 min 4 sec) 
Heartbeat CPU  0 instructions:    3000002 cycles:    2018701 heartbeat IPC: 1.48665 cumulative IPC: 1.48611 (Simulation time: 0 hr 0 min 6 sec) 
Heartbeat CPU  0 instructions:    4000000 cycles:    2691492 heartbeat IPC: 1.48634 cumulative IPC: 1.48616 (Simulation time: 0 hr 0 min 8 sec) 
Heartbeat CPU  0 instructions:    5000001 cycles:    3364312 heartbeat IPC: 1.48628 cumulative IPC: 1.48619 (Simulation time: 0 hr 0 min 10 sec) 
Heartbeat CPU  0 instructions:    6000001 cycles:    4036618 heartbeat IPC: 1.48742 cumulative IPC: 1.48639 (Simulation time: 0 hr 0 min 12 sec) 
Heartbeat CPU  0 instructions:    7000001 cycles:    4709011 heartbeat IPC: 1.48723 cumulative IPC: 1.48651 (Simulation time: 0 hr 0 min 14 sec) 
Heartbeat CPU  0 instructions:    8000000 cycles:    5381536 heartbeat IPC: 1.48693 cumulative IPC: 1.48656 (Simulation time: 0 hr 0 min 16 sec) 
Heartbeat CPU  0 instructions:    9000003 cycles:    6054151 heartbeat IPC: 1.48674 cumulative IPC: 1.48658 (Simulation time: 0 hr 0 min 18 sec) 
Heartbeat CPU  0 instructions:   10000003 cycles:    6726779 heartbeat IPC: 1.48671 cumulative IPC: 1.48660 (Simulation time: 0 hr 0 min 20 sec) 
Heartbeat CPU  0 instructions:   11000003 cycles:    7399314 heartbeat IPC: 1.48691 cumulative IPC: 1.48662 (Simulation time: 0 hr 0 min 22 sec) 
Heartbeat CPU  0 instructions:   12000000 cycles:    8071781 heartbeat IPC: 1.48706 cumulative IPC: 1.48666 (Simulation time: 0 hr 0 min 24 sec) 
Heartbeat CPU  0 instructions:   13000000 cycles:    8749436 heartbeat IPC: 1.47568 cumulative IPC: 1.48581 (Simulation time: 0 hr 0 min 25 sec) 
Heartbeat CPU  0 instructions:   14000002 cycles:    9428391 heartbeat IPC: 1.47285 cumulative IPC: 1.48488 (Simulation time: 0 hr 0 min 27 sec) 
Heartbeat CPU  0 instructions:   15000000 cycles:   10107440 heartbeat IPC: 1.47264 cumulative IPC: 1.48406 (Simulation time: 0 hr 0 min 29 sec) 
Heartbeat CPU  0 instructions:   16000000 cycles:   10786476 heartbeat IPC: 1.47268 cumulative IPC: 1.48334 (Simulation time: 0 hr 0 min 31 sec) 
Heartbeat CPU  0 instructions:   17000002 cycles:   11465571 heartbeat IPC: 1.47255 cumulative IPC: 1.48270 (Simulation time: 0 hr 0 min 33 sec) 
Heartbeat CPU  0 instructions:   18000003 cycles:   12144562 heartbeat IPC: 1.47278 cumulative IPC: 1.48215 (Simulation time: 0 hr 0 min 35 sec) 
Heartbeat CPU  0 instructions:   19000003 cycles:   12823480 heartbeat IPC: 1.47293 cumulative IPC: 1.48166 (Simulation time: 0 hr 0 min 37 sec) 
Heartbeat CPU  0 instructions:   20000000 cycles:   13502559 heartbeat IPC: 1.47258 cumulative IPC: 1.48120 (Simulation time: 0 hr 0 min 39 sec) 
Heartbeat CPU  0 instructions:   21000002 cycles:   14181683 heartbeat IPC: 1.47249 cumulative IPC: 1.48078 (Simulation time: 0 hr 0 min 41 sec) 
Heartbeat CPU  0 instructions:   22000000 cycles:   14860706 heartbeat IPC: 1.47270 cumulative IPC: 1.48041 (Simulation time: 0 hr 0 min 42 sec) 
Heartbeat CPU  0 instructions:   23000000 cycles:   15539724 heartbeat IPC: 1.47272 cumulative IPC: 1.48008 (Simulation time: 0 hr 0 min 44 sec) 
Heartbeat CPU  0 instructions:   24000000 cycles:   16218751 heartbeat IPC: 1.47270 cumulative IPC: 1.47977 (Simulation time: 0 hr 0 min 46 sec) 
Heartbeat CPU  0 instructions:   25000001 cycles:   16897900 heartbeat IPC: 1.47243 cumulative IPC: 1.47947 (Simulation time: 0 hr 0 min 48 sec) 
Heartbeat CPU  0 instructions:   26000001 cycles:   17576925 heartbeat IPC: 1.47270 cumulative IPC: 1.47921 (Simulation time: 0 hr 0 min 50 sec) 
Heartbeat CPU  0 instructions:   27000001 cycles:   18255882 heartbeat IPC: 1.47285 cumulative IPC: 1.47898 (Simulation time: 0 hr 0 min 52 sec) 
Heartbeat CPU  0 instructions:   28000000 cycles:   18934184 heartbeat IPC: 1.47427 cumulative IPC: 1.47881 (Simulation time: 0 hr 0 min 54 sec) 
Heartbeat CPU  0 instructions:   29000002 cycles:   19610851 heartbeat IPC: 1.47783 cumulative IPC: 1.47877 (Simulation time: 0 hr 0 min 56 sec) 
Heartbeat CPU  0 instructions:   30000000 cycles:   20287493 heartbeat IPC: 1.47788 cumulative IPC: 1.47874 (Simulation time: 0 hr 0 min 58 sec) 
Heartbeat CPU  0 instructions:   31000000 cycles:   20964143 heartbeat IPC: 1.47787 cumulative IPC: 1.47872 (Simulation time: 0 hr 1 min 0 sec) 
Heartbeat CPU  0 instructions:   32000000 cycles:   21640760 heartbeat IPC: 1.47794 cumulative IPC: 1.47869 (Simulation time: 0 hr 1 min 1 sec) 
Heartbeat CPU  0 instructions:   33000002 cycles:   22317590 heartbeat IPC: 1.47748 cumulative IPC: 1.47865 (Simulation time: 0 hr 1 min 3 sec) 
Heartbeat CPU  0 instructions:   34000000 cycles:   22994211 heartbeat IPC: 1.47793 cumulative IPC: 1.47863 (Simulation time: 0 hr 1 min 5 sec) 
Heartbeat CPU  0 instructions:   35000002 cycles:   23670888 heartbeat IPC: 1.47781 cumulative IPC: 1.47861 (Simulation time: 0 hr 1 min 7 sec) 
Heartbeat CPU  0 instructions:   36000000 cycles:   24347435 heartbeat IPC: 1.47809 cumulative IPC: 1.47860 (Simulation time: 0 hr 1 min 9 sec) 
Heartbeat CPU  0 instructions:   37000000 cycles:   25024257 heartbeat IPC: 1.47749 cumulative IPC: 1.47857 (Simulation time: 0 hr 1 min 11 sec) 
Heartbeat CPU  0 instructions:   38000000 cycles:   25700928 heartbeat IPC: 1.47782 cumulative IPC: 1.47855 (Simulation time: 0 hr 1 min 13 sec) 
Heartbeat CPU  0 instructions:   39000002 cycles:   26377656 heartbeat IPC: 1.47770 cumulative IPC: 1.47852 (Simulation time: 0 hr 1 min 15 sec) 
Heartbeat CPU  0 instructions:   40000000 cycles:   27054430 heartbeat IPC: 1.47760 cumulative IPC: 1.47850 (Simulation time: 0 hr 1 min 17 sec) 
Heartbeat CPU  0 instructions:   41000000 cycles:   27731267 heartbeat IPC: 1.47746 cumulative IPC: 1.47848 (Simulation time: 0 hr 1 min 19 sec) 
Heartbeat CPU  0 instructions:   42000002 cycles:   28407949 heartbeat IPC: 1.47780 cumulative IPC: 1.47846 (Simulation time: 0 hr 1 min 21 sec) 
Heartbeat CPU  0 instructions:   43000002 cycles:   29084607 heartbeat IPC: 1.47785 cumulative IPC: 1.47845 (Simulation time: 0 hr 1 min 23 sec) 
Heartbeat CPU  0 instructions:   44000000 cycles:   29750941 heartbeat IPC: 1.50075 cumulative IPC: 1.47894 (Simulation time: 0 hr 1 min 25 sec) 
Heartbeat CPU  0 instructions:   45000002 cycles:   30417175 heartbeat IPC: 1.50098 cumulative IPC: 1.47943 (Simulation time: 0 hr 1 min 27 sec) 
Heartbeat CPU  0 instructions:   46000001 cycles:   31083231 heartbeat IPC: 1.50137 cumulative IPC: 1.47990 (Simulation time: 0 hr 1 min 29 sec) 
Heartbeat CPU  0 instructions:   47000000 cycles:   31749378 heartbeat IPC: 1.50117 cumulative IPC: 1.48034 (Simulation time: 0 hr 1 min 30 sec) 
Heartbeat CPU  0 instructions:   48000000 cycles:   32415406 heartbeat IPC: 1.50144 cumulative IPC: 1.48078 (Simulation time: 0 hr 1 min 32 sec) 
Heartbeat CPU  0 instructions:   49000000 cycles:   33081387 heartbeat IPC: 1.50154 cumulative IPC: 1.48120 (Simulation time: 0 hr 1 min 34 sec) 
Heartbeat CPU  0 instructions:   50000003 cycles:   33747706 heartbeat IPC: 1.50079 cumulative IPC: 1.48158 (Simulation time: 0 hr 1 min 36 sec) 
Heartbeat CPU  0 instructions:   51000003 cycles:   34413677 heartbeat IPC: 1.50157 cumulative IPC: 1.48197 (Simulation time: 0 hr 1 min 38 sec) 
Heartbeat CPU  0 instructions:   52000000 cycles:   35079927 heartbeat IPC: 1.50093 cumulative IPC: 1.48233 (Simulation time: 0 hr 1 min 40 sec) 
Heartbeat CPU  0 instructions:   53000003 cycles:   35746032 heartbeat IPC: 1.50127 cumulative IPC: 1.48268 (Simulation time: 0 hr 1 min 42 sec) 
Heartbeat CPU  0 instructions:   54000000 cycles:   36411988 heartbeat IPC: 1.50160 cumulative IPC: 1.48303 (Simulation time: 0 hr 1 min 44 sec) 
Heartbeat CPU  0 instructions:   55000000 cycles:   37078116 heartbeat IPC: 1.50121 cumulative IPC: 1.48335 (Simulation time: 0 hr 1 min 46 sec) 
Heartbeat CPU  0 instructions:   56000000 cycles:   37739774 heartbeat IPC: 1.51135 cumulative IPC: 1.48385 (Simulation time: 0 hr 1 min 48 sec) 
Heartbeat CPU  0 instructions:   57000003 cycles:   38400780 heartbeat IPC: 1.51285 cumulative IPC: 1.48434 (Simulation time: 0 hr 1 min 50 sec) 
Heartbeat CPU  0 instructions:   58000000 cycles:   39062021 heartbeat IPC: 1.51230 cumulative IPC: 1.48482 (Simulation time: 0 hr 1 min 51 sec) 
Heartbeat CPU  0 instructions:   59000000 cycles:   39722975 heartbeat IPC: 1.51296 cumulative IPC: 1.48529 (Simulation time: 0 hr 1 min 53 sec) 
Heartbeat CPU  0 instructions:   60000000 cycles:   40383974 heartbeat IPC: 1.51286 cumulative IPC: 1.48574 (Simulation time: 0 hr 1 min 55 sec) 
Heartbeat CPU  0 instructions:   61000001 cycles:   41045612 heartbeat IPC: 1.51140 cumulative IPC: 1.48615 (Simulation time: 0 hr 1 min 57 sec) 
Heartbeat CPU  0 instructions:   62000000 cycles:   41706818 heartbeat IPC: 1.51239 cumulative IPC: 1.48657 (Simulation time: 0 hr 1 min 59 sec) 
Heartbeat CPU  0 instructions:   63000001 cycles:   42367873 heartbeat IPC: 1.51273 cumulative IPC: 1.48698 (Simulation time: 0 hr 2 min 1 sec) 
Heartbeat CPU  0 instructions:   64000000 cycles:   43029077 heartbeat IPC: 1.51239 cumulative IPC: 1.48737 (Simulation time: 0 hr 2 min 3 sec) 
Heartbeat CPU  0 instructions:   65000003 cycles:   43690202 heartbeat IPC: 1.51258 cumulative IPC: 1.48775 (Simulation time: 0 hr 2 min 5 sec) 
Heartbeat CPU  0 instructions:   66000000 cycles:   44351185 heartbeat IPC: 1.51289 cumulative IPC: 1.48812 (Simulation time: 0 hr 2 min 7 sec) 
Heartbeat CPU  0 instructions:   67000000 cycles:   45012508 heartbeat IPC: 1.51212 cumulative IPC: 1.48848 (Simulation time: 0 hr 2 min 9 sec) 
Heartbeat CPU  0 instructions:   68000000 cycles:   45682625 heartbeat IPC: 1.49228 cumulative IPC: 1.48853 (Simulation time: 0 hr 2 min 10 sec) 
Heartbeat CPU  0 instructions:   69000002 cycles:   46353345 heartbeat IPC: 1.49094 cumulative IPC: 1.48857 (Simulation time: 0 hr 2 min 12 sec) 
Heartbeat CPU  0 instructions:   70000001 cycles:   47024498 heartbeat IPC: 1.48997 cumulative IPC: 1.48859 (Simulation time: 0 hr 2 min 14 sec) 
Heartbeat CPU  0 instructions:   71000002 cycles:   47695251 heartbeat IPC: 1.49086 cumulative IPC: 1.48862 (Simulation time: 0 hr 2 min 16 sec) 
Heartbeat CPU  0 instructions:   72000000 cycles:   48366182 heartbeat IPC: 1.49046 cumulative IPC: 1.48864 (Simulation time: 0 hr 2 min 18 sec) 
Heartbeat CPU  0 instructions:   73000002 cycles:   49037051 heartbeat IPC: 1.49061 cumulative IPC: 1.48867 (Simulation time: 0 hr 2 min 20 sec) 
Heartbeat CPU  0 instructions:   74000000 cycles:   49707671 heartbeat IPC: 1.49115 cumulative IPC: 1.48870 (Simulation time: 0 hr 2 min 22 sec) 
Heartbeat CPU  0 instructions:   75000001 cycles:   50378845 heartbeat IPC: 1.48993 cumulative IPC: 1.48872 (Simulation time: 0 hr 2 min 24 sec) 
Heartbeat CPU  0 instructions:   76000000 cycles:   51049395 heartbeat IPC: 1.49131 cumulative IPC: 1.48875 (Simulation time: 0 hr 2 min 25 sec) 
Heartbeat CPU  0 instructions:   77000000 cycles:   51720453 heartbeat IPC: 1.49018 cumulative IPC: 1.48877 (Simulation time: 0 hr 2 min 27 sec) 
Heartbeat CPU  0 instructions:   78000003 cycles:   52391300 heartbeat IPC: 1.49066 cumulative IPC: 1.48880 (Simulation time: 0 hr 2 min 29 sec) 
Heartbeat CPU  0 instructions:   79000002 cycles:   53062040 heartbeat IPC: 1.49089 cumulative IPC: 1.48882 (Simulation time: 0 hr 2 min 31 sec) 
Heartbeat CPU  0 instructions:   80000000 cycles:   53734892 heartbeat IPC: 1.48621 cumulative IPC: 1.48879 (Simulation time: 0 hr 2 min 33 sec) 
Heartbeat CPU  0 instructions:   81000003 cycles:   54408548 heartbeat IPC: 1.48444 cumulative IPC: 1.48874 (Simulation time: 0 hr 2 min 35 sec) 
Heartbeat CPU  0 instructions:   82000001 cycles:   55081905 heartbeat IPC: 1.48509 cumulative IPC: 1.48869 (Simulation time: 0 hr 2 min 37 sec) 
Heartbeat CPU  0 instructions:   83000002 cycles:   55755338 heartbeat IPC: 1.48493 cumulative IPC: 1.48865 (Simulation time: 0 hr 2 min 39 sec) 
Heartbeat CPU  0 instructions:   84000000 cycles:   56428448 heartbeat IPC: 1.48564 cumulative IPC: 1.48861 (Simulation time: 0 hr 2 min 40 sec) 
Heartbeat CPU  0 instructions:   85000000 cycles:   57101793 heartbeat IPC: 1.48512 cumulative IPC: 1.48857 (Simulation time: 0 hr 2 min 42 sec) 
Heartbeat CPU  0 instructions:   86000001 cycles:   57775110 heartbeat IPC: 1.48519 cumulative IPC: 1.48853 (Simulation time: 0 hr 2 min 44 sec) 
Heartbeat CPU  0 instructions:   87000000 cycles:   58448512 heartbeat IPC: 1.48500 cumulative IPC: 1.48849 (Simulation time: 0 hr 2 min 46 sec) 
Heartbeat CPU  0 instructions:   88000000 cycles:   59122077 heartbeat IPC: 1.48464 cumulative IPC: 1.48845 (Simulation time: 0 hr 2 min 48 sec) 
Heartbeat CPU  0 instructions:   89000002 cycles:   59795518 heartbeat IPC: 1.48491 cumulative IPC: 1.48841 (Simulation time: 0 hr 2 min 50 sec) 
Heartbeat CPU  0 instructions:   90000001 cycles:   60468656 heartbeat IPC: 1.48558 cumulative IPC: 1.48837 (Simulation time: 0 hr 2 min 52 sec) 
Heartbeat CPU  0 instructions:   91000000 cycles:   61141772 heartbeat IPC: 1.48563 cumulative IPC: 1.48834 (Simulation time: 0 hr 2 min 54 sec) 
Heartbeat CPU  0 instructions:   92000000 cycles:   61818165 heartbeat IPC: 1.47843 cumulative IPC: 1.48824 (Simulation time: 0 hr 2 min 56 sec) 
Heartbeat CPU  0 instructions:   93000001 cycles:   62497199 heartbeat IPC: 1.47268 cumulative IPC: 1.48807 (Simulation time: 0 hr 2 min 57 sec) 
Heartbeat CPU  0 instructions:   94000001 cycles:   63176150 heartbeat IPC: 1.47286 cumulative IPC: 1.48790 (Simulation time: 0 hr 2 min 59 sec) 
Heartbeat CPU  0 instructions:   95000001 cycles:   63855173 heartbeat IPC: 1.47270 cumulative IPC: 1.48774 (Simulation time: 0 hr 3 min 1 sec) 
Heartbeat CPU  0 instructions:   96000000 cycles:   64534168 heartbeat IPC: 1.47276 cumulative IPC: 1.48758 (Simulation time: 0 hr 3 min 3 sec) 
Heartbeat CPU  0 instructions:   97000000 cycles:   65213227 heartbeat IPC: 1.47263 cumulative IPC: 1.48743 (Simulation time: 0 hr 3 min 5 sec) 
Heartbeat CPU  0 instructions:   98000000 cycles:   65892244 heartbeat IPC: 1.47272 cumulative IPC: 1.48728 (Simulation time: 0 hr 3 min 7 sec) 
Heartbeat CPU  0 instructions:   99000000 cycles:   66571262 heartbeat IPC: 1.47272 cumulative IPC: 1.48713 (Simulation time: 0 hr 3 min 8 sec) 
Heartbeat CPU  0 instructions:  100000000 cycles:   67250281 heartbeat IPC: 1.47271 cumulative IPC: 1.48698 (Simulation time: 0 hr 3 min 10 sec) 

Warmup complete CPU  0 instructions:  100000001 cycles:   67250282 (Simulation time: 0 hr 3 min 10 sec) 

Heartbeat CPU  0 instructions:  101000000 cycles:   68384783 heartbeat IPC: 0.88144 cumulative IPC: 0.88144 (Simulation time: 0 hr 3 min 12 sec) 
Heartbeat CPU  0 instructions:  102000002 cycles:   69519396 heartbeat IPC: 0.88136 cumulative IPC: 0.88140 (Simulation time: 0 hr 3 min 14 sec) 
Heartbeat CPU  0 instructions:  103000001 cycles:   70655798 heartbeat IPC: 0.87997 cumulative IPC: 0.88092 (Simulation time: 0 hr 3 min 16 sec) 
Heartbeat CPU  0 instructions:  104000000 cycles:   71790327 heartbeat IPC: 0.88142 cumulative IPC: 0.88105 (Simulation time: 0 hr 3 min 18 sec) 
Heartbeat CPU  0 instructions:  105000001 cycles:   72926663 heartbeat IPC: 0.88002 cumulative IPC: 0.88084 (Simulation time: 0 hr 3 min 20 sec) 
Heartbeat CPU  0 instructions:  106000001 cycles:   74061052 heartbeat IPC: 0.88153 cumulative IPC: 0.88096 (Simulation time: 0 hr 3 min 22 sec) 
Heartbeat CPU  0 instructions:  107000002 cycles:   75423211 heartbeat IPC: 0.73413 cumulative IPC: 0.85649 (Simulation time: 0 hr 3 min 25 sec) 
Heartbeat CPU  0 instructions:  108000000 cycles:   76553969 heartbeat IPC: 0.88436 cumulative IPC: 0.85987 (Simulation time: 0 hr 3 min 27 sec) 
Heartbeat CPU  0 instructions:  109000000 cycles:   77681862 heartbeat IPC: 0.88661 cumulative IPC: 0.86276 (Simulation time: 0 hr 3 min 29 sec) 
Heartbeat CPU  0 instructions:  110000002 cycles:   78807890 heartbeat IPC: 0.88808 cumulative IPC: 0.86523 (Simulation time: 0 hr 3 min 31 sec) 
Heartbeat CPU  0 instructions:  111000000 cycles:   79931119 heartbeat IPC: 0.89029 cumulative IPC: 0.86745 (Simulation time: 0 hr 3 min 33 sec) 
Heartbeat CPU  0 instructions:  112000000 cycles:   81055719 heartbeat IPC: 0.88921 cumulative IPC: 0.86922 (Simulation time: 0 hr 3 min 35 sec) 
Heartbeat CPU  0 instructions:  113000000 cycles:   82183664 heartbeat IPC: 0.88657 cumulative IPC: 0.87053 (Simulation time: 0 hr 3 min 37 sec) 
Heartbeat CPU  0 instructions:  114000002 cycles:   83313903 heartbeat IPC: 0.88477 cumulative IPC: 0.87153 (Simulation time: 0 hr 3 min 39 sec) 
Heartbeat CPU  0 instructions:  115000002 cycles:   84443490 heartbeat IPC: 0.88528 cumulative IPC: 0.87244 (Simulation time: 0 hr 3 min 41 sec) 
Heartbeat CPU  0 instructions:  116000000 cycles:   85574102 heartbeat IPC: 0.88447 cumulative IPC: 0.87318 (Simulation time: 0 hr 3 min 43 sec) 
Heartbeat CPU  0 instructions:  117000002 cycles:   86704412 heartbeat IPC: 0.88471 cumulative IPC: 0.87385 (Simulation time: 0 hr 3 min 45 sec) 
Heartbeat CPU  0 instructions:  118000000 cycles:   87831763 heartbeat IPC: 0.88703 cumulative IPC: 0.87457 (Simulation time: 0 hr 3 min 47 sec) 
Heartbeat CPU  0 instructions:  119000000 cycles:   88958927 heartbeat IPC: 0.88718 cumulative IPC: 0.87523 (Simulation time: 0 hr 3 min 49 sec) 
Heartbeat CPU  0 instructions:  120000000 cycles:   90079322 heartbeat IPC: 0.89254 cumulative IPC: 0.87608 (Simulation time: 0 hr 3 min 51 sec) 
Heartbeat CPU  0 instructions:  121000002 cycles:   91206946 heartbeat IPC: 0.88682 cumulative IPC: 0.87658 (Simulation time: 0 hr 3 min 53 sec) 
Heartbeat CPU  0 instructions:  122000002 cycles:   92332339 heartbeat IPC: 0.88858 cumulative IPC: 0.87712 (Simulation time: 0 hr 3 min 55 sec) 
Heartbeat CPU  0 instructions:  123000003 cycles:   93081255 heartbeat IPC: 1.33526 cumulative IPC: 0.89040 (Simulation time: 0 hr 3 min 57 sec) 
Heartbeat CPU  0 instructions:  124000000 cycles:   93783525 heartbeat IPC: 1.42395 cumulative IPC: 0.90453 (Simulation time: 0 hr 3 min 58 sec) 
Heartbeat CPU  0 instructions:  125000000 cycles:   94671368 heartbeat IPC: 1.12633 cumulative IPC: 0.91171 (Simulation time: 0 hr 4 min 0 sec) 
Heartbeat CPU  0 instructions:  126000000 cycles:   95627736 heartbeat IPC: 1.04562 cumulative IPC: 0.91622 (Simulation time: 0 hr 4 min 2 sec) 
Heartbeat CPU  0 instructions:  127000001 cycles:   96589622 heartbeat IPC: 1.03963 cumulative IPC: 0.92027 (Simulation time: 0 hr 4 min 3 sec) 
Heartbeat CPU  0 instructions:  128000000 cycles:   97578508 heartbeat IPC: 1.01124 cumulative IPC: 0.92323 (Simulation time: 0 hr 4 min 5 sec) 
Heartbeat CPU  0 instructions:  129000002 cycles:   98583798 heartbeat IPC: 0.99474 cumulative IPC: 0.92553 (Simulation time: 0 hr 4 min 7 sec) 
Heartbeat CPU  0 instructions:  130000003 cycles:   99557226 heartbeat IPC: 1.02730 cumulative IPC: 0.92859 (Simulation time: 0 hr 4 min 8 sec) 
Heartbeat CPU  0 instructions:  131000000 cycles:  100561383 heartbeat IPC: 0.99586 cumulative IPC: 0.93062 (Simulation time: 0 hr 4 min 10 sec) 
Heartbeat CPU  0 instructions:  132000000 cycles:  101540094 heartbeat IPC: 1.02175 cumulative IPC: 0.93322 (Simulation time: 0 hr 4 min 12 sec) 
Heartbeat CPU  0 instructions:  133000000 cycles:  102516712 heartbeat IPC: 1.02394 cumulative IPC: 0.93573 (Simulation time: 0 hr 4 min 13 sec) 
Heartbeat CPU  0 instructions:  134000001 cycles:  103513124 heartbeat IPC: 1.00360 cumulative IPC: 0.93760 (Simulation time: 0 hr 4 min 15 sec) 
Heartbeat CPU  0 instructions:  135000001 cycles:  104501666 heartbeat IPC: 1.01159 cumulative IPC: 0.93956 (Simulation time: 0 hr 4 min 17 sec) 
Heartbeat CPU  0 instructions:  136000000 cycles:  105474626 heartbeat IPC: 1.02779 cumulative IPC: 0.94181 (Simulation time: 0 hr 4 min 18 sec) 
Heartbeat CPU  0 instructions:  137000002 cycles:  106458223 heartbeat IPC: 1.01668 cumulative IPC: 0.94369 (Simulation time: 0 hr 4 min 20 sec) 
Heartbeat CPU  0 instructions:  138000003 cycles:  107441282 heartbeat IPC: 1.01723 cumulative IPC: 0.94549 (Simulation time: 0 hr 4 min 21 sec) 
Heartbeat CPU  0 instructions:  139000003 cycles:  108440800 heartbeat IPC: 1.00048 cumulative IPC: 0.94682 (Simulation time: 0 hr 4 min 23 sec) 
Heartbeat CPU  0 instructions:  140000000 cycles:  109427092 heartbeat IPC: 1.01390 cumulative IPC: 0.94839 (Simulation time: 0 hr 4 min 25 sec) 
Heartbeat CPU  0 instructions:  141000000 cycles:  110402717 heartbeat IPC: 1.02498 cumulative IPC: 0.95012 (Simulation time: 0 hr 4 min 26 sec) 
Heartbeat CPU  0 instructions:  142000001 cycles:  111385126 heartbeat IPC: 1.01791 cumulative IPC: 0.95163 (Simulation time: 0 hr 4 min 28 sec) 
Heartbeat CPU  0 instructions:  143000002 cycles:  112367764 heartbeat IPC: 1.01767 cumulative IPC: 0.95307 (Simulation time: 0 hr 4 min 30 sec) 
Heartbeat CPU  0 instructions:  144000000 cycles:  113364983 heartbeat IPC: 1.00279 cumulative IPC: 0.95414 (Simulation time: 0 hr 4 min 32 sec) 
Heartbeat CPU  0 instructions:  145000002 cycles:  114350997 heartbeat IPC: 1.01419 cumulative IPC: 0.95540 (Simulation time: 0 hr 4 min 33 sec) 
Heartbeat CPU  0 instructions:  146000003 cycles:  115351093 heartbeat IPC: 0.99990 cumulative IPC: 0.95632 (Simulation time: 0 hr 4 min 35 sec) 
Heartbeat CPU  0 instructions:  147000003 cycles:  116335410 heartbeat IPC: 1.01593 cumulative IPC: 0.95752 (Simulation time: 0 hr 4 min 37 sec) 
Heartbeat CPU  0 instructions:  148000000 cycles:  117379859 heartbeat IPC: 0.95744 cumulative IPC: 0.95752 (Simulation time: 0 hr 4 min 38 sec) 
Heartbeat CPU  0 instructions:  149000000 cycles:  118517183 heartbeat IPC: 0.87926 cumulative IPC: 0.95578 (Simulation time: 0 hr 4 min 40 sec) 
Heartbeat CPU  0 instructions:  150000002 cycles:  119701806 heartbeat IPC: 0.84415 cumulative IPC: 0.95326 (Simulation time: 0 hr 4 min 42 sec) 
Heartbeat CPU  0 instructions:  151000001 cycles:  120814855 heartbeat IPC: 0.89843 cumulative IPC: 0.95212 (Simulation time: 0 hr 4 min 44 sec) 
Heartbeat CPU  0 instructions:  152000000 cycles:  121916810 heartbeat IPC: 0.90748 cumulative IPC: 0.95122 (Simulation time: 0 hr 4 min 45 sec) 
Heartbeat CPU  0 instructions:  153000002 cycles:  123065483 heartbeat IPC: 0.87057 cumulative IPC: 0.94956 (Simulation time: 0 hr 4 min 47 sec) 
Heartbeat CPU  0 instructions:  154000003 cycles:  124186759 heartbeat IPC: 0.89184 cumulative IPC: 0.94843 (Simulation time: 0 hr 4 min 49 sec) 
Heartbeat CPU  0 instructions:  155000000 cycles:  125339409 heartbeat IPC: 0.86756 cumulative IPC: 0.94682 (Simulation time: 0 hr 4 min 51 sec) 
Heartbeat CPU  0 instructions:  156000000 cycles:  126469338 heartbeat IPC: 0.88501 cumulative IPC: 0.94564 (Simulation time: 0 hr 4 min 52 sec) 
Heartbeat CPU  0 instructions:  157000000 cycles:  127628728 heartbeat IPC: 0.86252 cumulative IPC: 0.94405 (Simulation time: 0 hr 4 min 54 sec) 
Heartbeat CPU  0 instructions:  158000001 cycles:  128757688 heartbeat IPC: 0.88577 cumulative IPC: 0.94298 (Simulation time: 0 hr 4 min 56 sec) 
Heartbeat CPU  0 instructions:  159000001 cycles:  129935167 heartbeat IPC: 0.84927 cumulative IPC: 0.94122 (Simulation time: 0 hr 4 min 58 sec) 
Heartbeat CPU  0 instructions:  160000000 cycles:  131072820 heartbeat IPC: 0.87900 cumulative IPC: 0.94011 (Simulation time: 0 hr 4 min 59 sec) 
Heartbeat CPU  0 instructions:  161000002 cycles:  132254897 heartbeat IPC: 0.84597 cumulative IPC: 0.93839 (Simulation time: 0 hr 5 min 1 sec) 
Heartbeat CPU  0 instructions:  162000003 cycles:  133401928 heartbeat IPC: 0.87182 cumulative IPC: 0.93724 (Simulation time: 0 hr 5 min 3 sec) 
Heartbeat CPU  0 instructions:  163000000 cycles:  134575482 heartbeat IPC: 0.85211 cumulative IPC: 0.93576 (Simulation time: 0 hr 5 min 5 sec) 
Heartbeat CPU  0 instructions:  164000000 cycles:  135715947 heartbeat IPC: 0.87684 cumulative IPC: 0.93478 (Simulation time: 0 hr 5 min 6 sec) 
Heartbeat CPU  0 instructions:  165000000 cycles:  136890650 heartbeat IPC: 0.85128 cumulative IPC: 0.93337 (Simulation time: 0 hr 5 min 8 sec) 
Heartbeat CPU  0 instructions:  166000001 cycles:  138022608 heartbeat IPC: 0.88343 cumulative IPC: 0.93257 (Simulation time: 0 hr 5 min 10 sec) 
Heartbeat CPU  0 instructions:  167000001 cycles:  139175006 heartbeat IPC: 0.86776 cumulative IPC: 0.93153 (Simulation time: 0 hr 5 min 12 sec) 
Heartbeat CPU  0 instructions:  168000000 cycles:  140324611 heartbeat IPC: 0.86986 cumulative IPC: 0.93056 (Simulation time: 0 hr 5 min 13 sec) 
Heartbeat CPU  0 instructions:  169000002 cycles:  141469892 heartbeat IPC: 0.87315 cumulative IPC: 0.92967 (Simulation time: 0 hr 5 min 15 sec) 
Heartbeat CPU  0 instructions:  170000003 cycles:  142605611 heartbeat IPC: 0.88050 cumulative IPC: 0.92893 (Simulation time: 0 hr 5 min 17 sec) 
Heartbeat CPU  0 instructions:  171000000 cycles:  143738956 heartbeat IPC: 0.88234 cumulative IPC: 0.92824 (Simulation time: 0 hr 5 min 19 sec) 
Heartbeat CPU  0 instructions:  172000000 cycles:  144879544 heartbeat IPC: 0.87674 cumulative IPC: 0.92749 (Simulation time: 0 hr 5 min 20 sec) 
Heartbeat CPU  0 instructions:  173000002 cycles:  146006541 heartbeat IPC: 0.88732 cumulative IPC: 0.92691 (Simulation time: 0 hr 5 min 22 sec) 
Heartbeat CPU  0 instructions:  174000001 cycles:  147189354 heartbeat IPC: 0.84544 cumulative IPC: 0.92571 (Simulation time: 0 hr 5 min 24 sec) 
Heartbeat CPU  0 instructions:  175000003 cycles:  148284844 heartbeat IPC: 0.91284 cumulative IPC: 0.92553 (Simulation time: 0 hr 5 min 26 sec) 
Heartbeat CPU  0 instructions:  176000000 cycles:  149437080 heartbeat IPC: 0.86788 cumulative IPC: 0.92472 (Simulation time: 0 hr 5 min 28 sec) 
Heartbeat CPU  0 instructions:  177000003 cycles:  150545876 heartbeat IPC: 0.90188 cumulative IPC: 0.92442 (Simulation time: 0 hr 5 min 30 sec) 
Heartbeat CPU  0 instructions:  178000003 cycles:  151728837 heartbeat IPC: 0.84534 cumulative IPC: 0.92331 (Simulation time: 0 hr 5 min 31 sec) 
Heartbeat CPU  0 instructions:  179000000 cycles:  152839009 heartbeat IPC: 0.90076 cumulative IPC: 0.92302 (Simulation time: 0 hr 5 min 33 sec) 
Heartbeat CPU  0 instructions:  180000000 cycles:  153993368 heartbeat IPC: 0.86628 cumulative IPC: 0.92226 (Simulation time: 0 hr 5 min 35 sec) 
Heartbeat CPU  0 instructions:  181000001 cycles:  155124017 heartbeat IPC: 0.88445 cumulative IPC: 0.92178 (Simulation time: 0 hr 5 min 37 sec) 
Heartbeat CPU  0 instructions:  182000001 cycles:  156305180 heartbeat IPC: 0.84662 cumulative IPC: 0.92078 (Simulation time: 0 hr 5 min 39 sec) 
Heartbeat CPU  0 instructions:  183000002 cycles:  157439488 heartbeat IPC: 0.88160 cumulative IPC: 0.92029 (Simulation time: 0 hr 5 min 40 sec) 
Heartbeat CPU  0 instructions:  184000000 cycles:  158619502 heartbeat IPC: 0.84745 cumulative IPC: 0.91935 (Simulation time: 0 hr 5 min 42 sec) 
Heartbeat CPU  0 instructions:  185000000 cycles:  159749099 heartbeat IPC: 0.88527 cumulative IPC: 0.91893 (Simulation time: 0 hr 5 min 44 sec) 
Heartbeat CPU  0 instructions:  186000000 cycles:  160908969 heartbeat IPC: 0.86217 cumulative IPC: 0.91823 (Simulation time: 0 hr 5 min 46 sec) 
Heartbeat CPU  0 instructions:  187000000 cycles:  162046279 heartbeat IPC: 0.87927 cumulative IPC: 0.91776 (Simulation time: 0 hr 5 min 48 sec) 
Heartbeat CPU  0 instructions:  188000000 cycles:  163229980 heartbeat IPC: 0.84481 cumulative IPC: 0.91686 (Simulation time: 0 hr 5 min 50 sec) 
Heartbeat CPU  0 instructions:  189000001 cycles:  164344137 heartbeat IPC: 0.89754 cumulative IPC: 0.91664 (Simulation time: 0 hr 5 min 51 sec) 
Heartbeat CPU  0 instructions:  190000001 cycles:  165522525 heartbeat IPC: 0.84862 cumulative IPC: 0.91582 (Simulation time: 0 hr 5 min 53 sec) 
Heartbeat CPU  0 instructions:  191000002 cycles:  166656300 heartbeat IPC: 0.88201 cumulative IPC: 0.91544 (Simulation time: 0 hr 5 min 55 sec) 
Heartbeat CPU  0 instructions:  192000000 cycles:  167816405 heartbeat IPC: 0.86199 cumulative IPC: 0.91482 (Simulation time: 0 hr 5 min 57 sec) 
Heartbeat CPU  0 instructions:  193000003 cycles:  168943974 heartbeat IPC: 0.88687 cumulative IPC: 0.91451 (Simulation time: 0 hr 5 min 59 sec) 
Heartbeat CPU  0 instructions:  194000003 cycles:  170127334 heartbeat IPC: 0.84505 cumulative IPC: 0.91371 (Simulation time: 0 hr 6 min 0 sec) 
Heartbeat CPU  0 instructions:  195000001 cycles:  171223239 heartbeat IPC: 0.91249 cumulative IPC: 0.91370 (Simulation time: 0 hr 6 min 2 sec) 
Heartbeat CPU  0 instructions:  196000000 cycles:  172358106 heartbeat IPC: 0.88116 cumulative IPC: 0.91335 (Simulation time: 0 hr 6 min 4 sec) 
Heartbeat CPU  0 instructions:  197000001 cycles:  173492531 heartbeat IPC: 0.88150 cumulative IPC: 0.91301 (Simulation time: 0 hr 6 min 6 sec) 
Heartbeat CPU  0 instructions:  198000001 cycles:  174644251 heartbeat IPC: 0.86827 cumulative IPC: 0.91253 (Simulation time: 0 hr 6 min 7 sec) 
Heartbeat CPU  0 instructions:  199000002 cycles:  175790099 heartbeat IPC: 0.87272 cumulative IPC: 0.91211 (Simulation time: 0 hr 6 min 9 sec) 
Heartbeat CPU  0 instructions:  200000000 cycles:  176937066 heartbeat IPC: 0.87186 cumulative IPC: 0.91169 (Simulation time: 0 hr 6 min 11 sec) 
Finished CPU 0 instructions: 100000001 cycles: 109686792 cumulative IPC: 0.91169 (Simulation time: 0 hr 6 min 11 sec) 

ChampSim completed all CPUs

[ROI Statistics]
Core_0_instructions 100000001
Core_0_cycles 109686792
Core_0_IPC 0.91169

Core_0_branch_prediction_accuracy 99.52414
Core_0_branch_MPKI 0.08716
Core_0_average_ROB_occupancy_at_mispredict 253.79234

Core_0_L1D_total_access 57369719
Core_0_L1D_total_hit 54345384
Core_0_L1D_total_miss 3024335
Core_0_L1D_loads 27343113
Core_0_L1D_load_hit 26522553
Core_0_L1D_load_miss 820560
Core_0_L1D_RFOs 6122319
Core_0_L1D_RFO_hit 6122298
Core_0_L1D_RFO_miss 21
Core_0_L1D_prefetches 23904287
Core_0_L1D_prefetch_hit 21700533
Core_0_L1D_prefetch_miss 2203754
Core_0_L1D_writebacks 0
Core_0_L1D_writeback_hit 0
Core_0_L1D_writeback_miss 0
Core_0_L1D_prefetch_requested 80558364
Core_0_L1D_prefetch_issued 70059688
Core_0_L1D_prefetch_useful 1576836
Core_0_L1D_prefetch_useless 3514210
Core_0_L1D_prefetch_late 144270
Core_0_L1D_average_miss_latency 6447128.03759

Core_0_L1I_total_access 20998580
Core_0_L1I_total_hit 20998503
Core_0_L1I_total_miss 77
Core_0_L1I_loads 20998580
Core_0_L1I_load_hit 20998503
Core_0_L1I_load_miss 77
Core_0_L1I_RFOs 0
Core_0_L1I_RFO_hit 0
Core_0_L1I_RFO_miss 0
Core_0_L1I_prefetches 0
Core_0_L1I_prefetch_hit 0
Core_0_L1I_prefetch_miss 0
Core_0_L1I_writebacks 0
Core_0_L1I_writeback_hit 0
Core_0_L1I_writeback_miss 0
Core_0_L1I_prefetch_requested 0
Core_0_L1I_prefetch_issued 0
Core_0_L1I_prefetch_useful 0
Core_0_L1I_prefetch_useless 0
Core_0_L1I_prefetch_late 0
Core_0_L1I_average_miss_latency 192.57143

Core_0_L2C_total_access 6023555
Core_0_L2C_total_hit 3978878
Core_0_L2C_total_miss 2044677
Core_0_L2C_loads 676364
Core_0_L2C_load_hit 590438
Core_0_L2C_load_miss 85926
Core_0_L2C_RFOs 21
Core_0_L2C_RFO_hit 0
Core_0_L2C_RFO_miss 21
Core_0_L2C_prefetches 4667856
Core_0_L2C_prefetch_hit 2709242
Core_0_L2C_prefetch_miss 1958614
Core_0_L2C_writebacks 679314
Core_0_L2C_writeback_hit 679198
Core_0_L2C_writeback_miss 116
Core_0_L2C_prefetch_requested 4555321
Core_0_L2C_prefetch_issued 4555228
Core_0_L2C_prefetch_useful 428590
Core_0_L2C_prefetch_useless 2311142
Core_0_L2C_prefetch_late 11941
Core_0_L2C_average_miss_latency 333.07218

Core_0_LLC_total_access 3359347
Core_0_LLC_total_hit 1329196
Core_0_LLC_total_miss 2030151
Core_0_LLC_loads 73985
Core_0_LLC_load_hit 24045
Core_0_LLC_load_miss 49940
Core_0_LLC_RFOs 21
Core_0_LLC_RFO_hit 1
Core_0_LLC_RFO_miss 20
Core_0_LLC_prefetches 2609791
Core_0_LLC_prefetch_hit 662383
Core_0_LLC_prefetch_miss 1947408
Core_0_LLC_writebacks 675550
Core_0_LLC_writeback_hit 642767
Core_0_LLC_writeback_miss 32783
Core_0_LLC_prefetch_requested 2841654
Core_0_LLC_prefetch_issued 2798951
Core_0_LLC_prefetch_useful 55221
Core_0_LLC_prefetch_useless 2602312
Core_0_LLC_prefetch_late 1228
Core_0_LLC_average_miss_latency 465.25163

Core_0_major_page_fault 0
Core_0_minor_page_fault 80857

CPU 0 L1D next line prefetcher final stats
CPU 0 L2C PC-based stride prefetcher final stats
LLC Next Line Prefetcher Final Stats: none
Channel_0_RQ_row_buffer_hit 521108
Channel_0_RQ_row_buffer_miss 1476260
Channel_0_WQ_row_buffer_hit 80342
Channel_0_WQ_row_buffer_miss 580879
Channel_0_WQ_full 0
Channel_0_dbus_congested 1517233

avg_congested_cycle 10
