*************************************************
   ChampSim Multicore Out-of-Order Simulator
   Last compiled: Dec 25 2023 14:53:29
*************************************************

trace_0 ./test_trace/459.GemsFDTD-1320B.champsimtrace.xz
CPU 0 L2C next line prefetcher
Initialize SRRIP state
LLC Next Line Prefetcher
warmup_instructions 100000000
simulation_instructions 100000000
champsim_seed 264

num_cpus 1
cpu_freq 4000
dram_io_freq 2400
page_size 4096
block_size 64
max_read_per_cycle 8
max_fill_per_cycle 1
dram_channels 1
dram_ranks 1
dram_banks 8
dram_rows 65536
dram_columns 128
dram_row_size 8
dram_size 4096
dram_pages 1048576

fetch_width 6
decode_width 6
exec_width 4
lq_width 2
sq_width 2
retire_width 4
scheduler_size 128
branch_mispredict_penalty 20
rob_size 256
lq_size 72
sq_size 56
num_instr_destinations_sparc 4
num_instr_destinations 2
num_instr_sources 4

itlb_set 16
itlb_way 8
itlb_rq_size 16
itlb_wq_size 16
itlb_pq_size 0
itlb_mshr_size 8
itlb_latency 1

dtlb_set 16
dtlb_way 4
dtlb_rq_size 16
dtlb_wq_size 16
dtlb_pq_size 0
dtlb_mshr_size 8
dtlb_latency 1

stlb_set 128
stlb_way 12
stlb_rq_size 32
stlb_wq_size 32
stlb_pq_size 0
stlb_mshr_size 16
stlb_latency 8

l1i_size 32
l1i_set 64
l1i_way 8
l1i_rq_size 64
l1i_wq_size 64
l1i_pq_size 8
l1i_mshr_size 8
l1i_latency 1

l1d_size 32
l1d_set 64
l1d_way 8
l1d_rq_size 64
l1d_wq_size 64
l1d_pq_size 8
l1d_mshr_size 16
l1d_latency 4

l2c_size 512
l2c_set 1024
l2c_way 8
l2c_rq_size 32
l2c_wq_size 32
l2c_pq_size 16
l2c_mshr_size 32
l2c_latency 10

llc_size 2048
llc_set 2048
llc_way 16
llc_rq_size 32
llc_wq_size 32
llc_pq_size 32
llc_mshr_size 64
llc_latency 20

dram_channel_width 8
dram_wq_size 64
dram_rq_size 64
tRP 15
tRCD 15
tCAS 12.5
dram_dbus_turn_around_time 30
dram_write_high_wm 56
dram_write_low_wm 48
min_dram_writes_per_switch 16
dram_mtps 2400
dram_dbus_return_time 13


Heartbeat CPU  0 instructions:    1000000 cycles:     673381 heartbeat IPC: 1.48504 cumulative IPC: 1.48504 (Simulation time: 0 hr 0 min 1 sec) 
Heartbeat CPU  0 instructions:    2000003 cycles:    1346063 heartbeat IPC: 1.48659 cumulative IPC: 1.48582 (Simulation time: 0 hr 0 min 3 sec) 
Heartbeat CPU  0 instructions:    3000002 cycles:    2018674 heartbeat IPC: 1.48674 cumulative IPC: 1.48612 (Simulation time: 0 hr 0 min 5 sec) 
Heartbeat CPU  0 instructions:    4000000 cycles:    2691428 heartbeat IPC: 1.48642 cumulative IPC: 1.48620 (Simulation time: 0 hr 0 min 7 sec) 
Heartbeat CPU  0 instructions:    5000001 cycles:    3364218 heartbeat IPC: 1.48635 cumulative IPC: 1.48623 (Simulation time: 0 hr 0 min 9 sec) 
Heartbeat CPU  0 instructions:    6000001 cycles:    4036536 heartbeat IPC: 1.48739 cumulative IPC: 1.48642 (Simulation time: 0 hr 0 min 11 sec) 
Heartbeat CPU  0 instructions:    7000001 cycles:    4708921 heartbeat IPC: 1.48724 cumulative IPC: 1.48654 (Simulation time: 0 hr 0 min 13 sec) 
Heartbeat CPU  0 instructions:    8000000 cycles:    5381425 heartbeat IPC: 1.48698 cumulative IPC: 1.48660 (Simulation time: 0 hr 0 min 15 sec) 
Heartbeat CPU  0 instructions:    9000003 cycles:    6053993 heartbeat IPC: 1.48684 cumulative IPC: 1.48662 (Simulation time: 0 hr 0 min 17 sec) 
Heartbeat CPU  0 instructions:   10000003 cycles:    6726630 heartbeat IPC: 1.48669 cumulative IPC: 1.48663 (Simulation time: 0 hr 0 min 18 sec) 
Heartbeat CPU  0 instructions:   11000003 cycles:    7399194 heartbeat IPC: 1.48685 cumulative IPC: 1.48665 (Simulation time: 0 hr 0 min 20 sec) 
Heartbeat CPU  0 instructions:   12000000 cycles:    8071613 heartbeat IPC: 1.48716 cumulative IPC: 1.48669 (Simulation time: 0 hr 0 min 22 sec) 
Heartbeat CPU  0 instructions:   13000000 cycles:    8749253 heartbeat IPC: 1.47571 cumulative IPC: 1.48584 (Simulation time: 0 hr 0 min 24 sec) 
Heartbeat CPU  0 instructions:   14000002 cycles:    9428206 heartbeat IPC: 1.47286 cumulative IPC: 1.48491 (Simulation time: 0 hr 0 min 26 sec) 
Heartbeat CPU  0 instructions:   15000000 cycles:   10107235 heartbeat IPC: 1.47269 cumulative IPC: 1.48409 (Simulation time: 0 hr 0 min 27 sec) 
Heartbeat CPU  0 instructions:   16000000 cycles:   10786292 heartbeat IPC: 1.47263 cumulative IPC: 1.48336 (Simulation time: 0 hr 0 min 29 sec) 
Heartbeat CPU  0 instructions:   17000002 cycles:   11465378 heartbeat IPC: 1.47257 cumulative IPC: 1.48272 (Simulation time: 0 hr 0 min 31 sec) 
Heartbeat CPU  0 instructions:   18000003 cycles:   12144382 heartbeat IPC: 1.47275 cumulative IPC: 1.48217 (Simulation time: 0 hr 0 min 33 sec) 
Heartbeat CPU  0 instructions:   19000003 cycles:   12823283 heartbeat IPC: 1.47297 cumulative IPC: 1.48168 (Simulation time: 0 hr 0 min 35 sec) 
Heartbeat CPU  0 instructions:   20000000 cycles:   13502339 heartbeat IPC: 1.47263 cumulative IPC: 1.48122 (Simulation time: 0 hr 0 min 36 sec) 
Heartbeat CPU  0 instructions:   21000002 cycles:   14181456 heartbeat IPC: 1.47250 cumulative IPC: 1.48081 (Simulation time: 0 hr 0 min 38 sec) 
Heartbeat CPU  0 instructions:   22000000 cycles:   14860476 heartbeat IPC: 1.47271 cumulative IPC: 1.48044 (Simulation time: 0 hr 0 min 40 sec) 
Heartbeat CPU  0 instructions:   23000000 cycles:   15539490 heartbeat IPC: 1.47272 cumulative IPC: 1.48010 (Simulation time: 0 hr 0 min 42 sec) 
Heartbeat CPU  0 instructions:   24000000 cycles:   16218511 heartbeat IPC: 1.47271 cumulative IPC: 1.47979 (Simulation time: 0 hr 0 min 43 sec) 
Heartbeat CPU  0 instructions:   25000001 cycles:   16897655 heartbeat IPC: 1.47244 cumulative IPC: 1.47950 (Simulation time: 0 hr 0 min 45 sec) 
Heartbeat CPU  0 instructions:   26000001 cycles:   17576704 heartbeat IPC: 1.47265 cumulative IPC: 1.47923 (Simulation time: 0 hr 0 min 47 sec) 
Heartbeat CPU  0 instructions:   27000001 cycles:   18255674 heartbeat IPC: 1.47282 cumulative IPC: 1.47899 (Simulation time: 0 hr 0 min 49 sec) 
Heartbeat CPU  0 instructions:   28000000 cycles:   18933976 heartbeat IPC: 1.47427 cumulative IPC: 1.47882 (Simulation time: 0 hr 0 min 51 sec) 
Heartbeat CPU  0 instructions:   29000002 cycles:   19610654 heartbeat IPC: 1.47781 cumulative IPC: 1.47879 (Simulation time: 0 hr 0 min 52 sec) 
Heartbeat CPU  0 instructions:   30000000 cycles:   20287307 heartbeat IPC: 1.47786 cumulative IPC: 1.47876 (Simulation time: 0 hr 0 min 54 sec) 
Heartbeat CPU  0 instructions:   31000000 cycles:   20963957 heartbeat IPC: 1.47787 cumulative IPC: 1.47873 (Simulation time: 0 hr 0 min 56 sec) 
Heartbeat CPU  0 instructions:   32000000 cycles:   21640587 heartbeat IPC: 1.47791 cumulative IPC: 1.47870 (Simulation time: 0 hr 0 min 58 sec) 
Heartbeat CPU  0 instructions:   33000002 cycles:   22317404 heartbeat IPC: 1.47751 cumulative IPC: 1.47867 (Simulation time: 0 hr 1 min 0 sec) 
Heartbeat CPU  0 instructions:   34000000 cycles:   22994034 heartbeat IPC: 1.47791 cumulative IPC: 1.47864 (Simulation time: 0 hr 1 min 1 sec) 
Heartbeat CPU  0 instructions:   35000002 cycles:   23670696 heartbeat IPC: 1.47785 cumulative IPC: 1.47862 (Simulation time: 0 hr 1 min 3 sec) 
Heartbeat CPU  0 instructions:   36000000 cycles:   24347251 heartbeat IPC: 1.47807 cumulative IPC: 1.47861 (Simulation time: 0 hr 1 min 5 sec) 
Heartbeat CPU  0 instructions:   37000000 cycles:   25024082 heartbeat IPC: 1.47747 cumulative IPC: 1.47858 (Simulation time: 0 hr 1 min 7 sec) 
Heartbeat CPU  0 instructions:   38000000 cycles:   25700755 heartbeat IPC: 1.47782 cumulative IPC: 1.47856 (Simulation time: 0 hr 1 min 9 sec) 
Heartbeat CPU  0 instructions:   39000002 cycles:   26377493 heartbeat IPC: 1.47768 cumulative IPC: 1.47853 (Simulation time: 0 hr 1 min 11 sec) 
Heartbeat CPU  0 instructions:   40000000 cycles:   27054280 heartbeat IPC: 1.47757 cumulative IPC: 1.47851 (Simulation time: 0 hr 1 min 12 sec) 
Heartbeat CPU  0 instructions:   41000000 cycles:   27731129 heartbeat IPC: 1.47743 cumulative IPC: 1.47848 (Simulation time: 0 hr 1 min 14 sec) 
Heartbeat CPU  0 instructions:   42000002 cycles:   28407805 heartbeat IPC: 1.47782 cumulative IPC: 1.47847 (Simulation time: 0 hr 1 min 16 sec) 
Heartbeat CPU  0 instructions:   43000002 cycles:   29084446 heartbeat IPC: 1.47789 cumulative IPC: 1.47845 (Simulation time: 0 hr 1 min 18 sec) 
Heartbeat CPU  0 instructions:   44000000 cycles:   29750680 heartbeat IPC: 1.50097 cumulative IPC: 1.47896 (Simulation time: 0 hr 1 min 20 sec) 
Heartbeat CPU  0 instructions:   45000003 cycles:   30416821 heartbeat IPC: 1.50119 cumulative IPC: 1.47944 (Simulation time: 0 hr 1 min 21 sec) 
Heartbeat CPU  0 instructions:   46000001 cycles:   31082737 heartbeat IPC: 1.50169 cumulative IPC: 1.47992 (Simulation time: 0 hr 1 min 23 sec) 
Heartbeat CPU  0 instructions:   47000000 cycles:   31748745 heartbeat IPC: 1.50148 cumulative IPC: 1.48037 (Simulation time: 0 hr 1 min 25 sec) 
Heartbeat CPU  0 instructions:   48000000 cycles:   32414607 heartbeat IPC: 1.50181 cumulative IPC: 1.48081 (Simulation time: 0 hr 1 min 27 sec) 
Heartbeat CPU  0 instructions:   49000000 cycles:   33080523 heartbeat IPC: 1.50169 cumulative IPC: 1.48123 (Simulation time: 0 hr 1 min 29 sec) 
Heartbeat CPU  0 instructions:   50000003 cycles:   33746805 heartbeat IPC: 1.50087 cumulative IPC: 1.48162 (Simulation time: 0 hr 1 min 31 sec) 
Heartbeat CPU  0 instructions:   51000003 cycles:   34412725 heartbeat IPC: 1.50168 cumulative IPC: 1.48201 (Simulation time: 0 hr 1 min 32 sec) 
Heartbeat CPU  0 instructions:   52000000 cycles:   35078860 heartbeat IPC: 1.50119 cumulative IPC: 1.48237 (Simulation time: 0 hr 1 min 34 sec) 
Heartbeat CPU  0 instructions:   53000003 cycles:   35744876 heartbeat IPC: 1.50147 cumulative IPC: 1.48273 (Simulation time: 0 hr 1 min 36 sec) 
Heartbeat CPU  0 instructions:   54000000 cycles:   36410693 heartbeat IPC: 1.50191 cumulative IPC: 1.48308 (Simulation time: 0 hr 1 min 38 sec) 
Heartbeat CPU  0 instructions:   55000000 cycles:   37076695 heartbeat IPC: 1.50150 cumulative IPC: 1.48341 (Simulation time: 0 hr 1 min 40 sec) 
Heartbeat CPU  0 instructions:   56000000 cycles:   37738349 heartbeat IPC: 1.51136 cumulative IPC: 1.48390 (Simulation time: 0 hr 1 min 42 sec) 
Heartbeat CPU  0 instructions:   57000003 cycles:   38399442 heartbeat IPC: 1.51265 cumulative IPC: 1.48440 (Simulation time: 0 hr 1 min 44 sec) 
Heartbeat CPU  0 instructions:   58000000 cycles:   39060691 heartbeat IPC: 1.51229 cumulative IPC: 1.48487 (Simulation time: 0 hr 1 min 45 sec) 
Heartbeat CPU  0 instructions:   59000000 cycles:   39721771 heartbeat IPC: 1.51268 cumulative IPC: 1.48533 (Simulation time: 0 hr 1 min 47 sec) 
Heartbeat CPU  0 instructions:   60000000 cycles:   40382824 heartbeat IPC: 1.51274 cumulative IPC: 1.48578 (Simulation time: 0 hr 1 min 49 sec) 
Heartbeat CPU  0 instructions:   61000001 cycles:   41044395 heartbeat IPC: 1.51156 cumulative IPC: 1.48620 (Simulation time: 0 hr 1 min 51 sec) 
Heartbeat CPU  0 instructions:   62000000 cycles:   41705735 heartbeat IPC: 1.51208 cumulative IPC: 1.48661 (Simulation time: 0 hr 1 min 53 sec) 
Heartbeat CPU  0 instructions:   63000001 cycles:   42366830 heartbeat IPC: 1.51264 cumulative IPC: 1.48701 (Simulation time: 0 hr 1 min 55 sec) 
Heartbeat CPU  0 instructions:   64000000 cycles:   43028036 heartbeat IPC: 1.51239 cumulative IPC: 1.48740 (Simulation time: 0 hr 1 min 57 sec) 
Heartbeat CPU  0 instructions:   65000003 cycles:   43689281 heartbeat IPC: 1.51230 cumulative IPC: 1.48778 (Simulation time: 0 hr 1 min 58 sec) 
Heartbeat CPU  0 instructions:   66000000 cycles:   44350292 heartbeat IPC: 1.51283 cumulative IPC: 1.48815 (Simulation time: 0 hr 2 min 0 sec) 
Heartbeat CPU  0 instructions:   67000000 cycles:   45011649 heartbeat IPC: 1.51204 cumulative IPC: 1.48850 (Simulation time: 0 hr 2 min 2 sec) 
Heartbeat CPU  0 instructions:   68000000 cycles:   45681620 heartbeat IPC: 1.49260 cumulative IPC: 1.48856 (Simulation time: 0 hr 2 min 4 sec) 
Heartbeat CPU  0 instructions:   69000002 cycles:   46352233 heartbeat IPC: 1.49118 cumulative IPC: 1.48860 (Simulation time: 0 hr 2 min 6 sec) 
Heartbeat CPU  0 instructions:   70000001 cycles:   47023234 heartbeat IPC: 1.49031 cumulative IPC: 1.48863 (Simulation time: 0 hr 2 min 8 sec) 
Heartbeat CPU  0 instructions:   71000002 cycles:   47693844 heartbeat IPC: 1.49118 cumulative IPC: 1.48866 (Simulation time: 0 hr 2 min 10 sec) 
Heartbeat CPU  0 instructions:   72000000 cycles:   48364627 heartbeat IPC: 1.49079 cumulative IPC: 1.48869 (Simulation time: 0 hr 2 min 11 sec) 
Heartbeat CPU  0 instructions:   73000002 cycles:   49035321 heartbeat IPC: 1.49100 cumulative IPC: 1.48872 (Simulation time: 0 hr 2 min 13 sec) 
Heartbeat CPU  0 instructions:   74000000 cycles:   49705776 heartbeat IPC: 1.49152 cumulative IPC: 1.48876 (Simulation time: 0 hr 2 min 15 sec) 
Heartbeat CPU  0 instructions:   75000001 cycles:   50376759 heartbeat IPC: 1.49035 cumulative IPC: 1.48878 (Simulation time: 0 hr 2 min 17 sec) 
Heartbeat CPU  0 instructions:   76000000 cycles:   51047188 heartbeat IPC: 1.49158 cumulative IPC: 1.48882 (Simulation time: 0 hr 2 min 19 sec) 
Heartbeat CPU  0 instructions:   77000000 cycles:   51718085 heartbeat IPC: 1.49054 cumulative IPC: 1.48884 (Simulation time: 0 hr 2 min 20 sec) 
Heartbeat CPU  0 instructions:   78000003 cycles:   52388847 heartbeat IPC: 1.49085 cumulative IPC: 1.48887 (Simulation time: 0 hr 2 min 22 sec) 
Heartbeat CPU  0 instructions:   79000002 cycles:   53059548 heartbeat IPC: 1.49098 cumulative IPC: 1.48889 (Simulation time: 0 hr 2 min 24 sec) 
Heartbeat CPU  0 instructions:   80000000 cycles:   53732470 heartbeat IPC: 1.48605 cumulative IPC: 1.48886 (Simulation time: 0 hr 2 min 26 sec) 
Heartbeat CPU  0 instructions:   81000003 cycles:   54406270 heartbeat IPC: 1.48412 cumulative IPC: 1.48880 (Simulation time: 0 hr 2 min 28 sec) 
Heartbeat CPU  0 instructions:   82000001 cycles:   55079730 heartbeat IPC: 1.48487 cumulative IPC: 1.48875 (Simulation time: 0 hr 2 min 30 sec) 
Heartbeat CPU  0 instructions:   83000002 cycles:   55753310 heartbeat IPC: 1.48461 cumulative IPC: 1.48870 (Simulation time: 0 hr 2 min 31 sec) 
Heartbeat CPU  0 instructions:   84000000 cycles:   56426633 heartbeat IPC: 1.48517 cumulative IPC: 1.48866 (Simulation time: 0 hr 2 min 33 sec) 
Heartbeat CPU  0 instructions:   85000000 cycles:   57100171 heartbeat IPC: 1.48470 cumulative IPC: 1.48861 (Simulation time: 0 hr 2 min 35 sec) 
Heartbeat CPU  0 instructions:   86000001 cycles:   57773727 heartbeat IPC: 1.48466 cumulative IPC: 1.48857 (Simulation time: 0 hr 2 min 37 sec) 
Heartbeat CPU  0 instructions:   87000000 cycles:   58447311 heartbeat IPC: 1.48459 cumulative IPC: 1.48852 (Simulation time: 0 hr 2 min 39 sec) 
Heartbeat CPU  0 instructions:   88000000 cycles:   59120970 heartbeat IPC: 1.48443 cumulative IPC: 1.48847 (Simulation time: 0 hr 2 min 41 sec) 
Heartbeat CPU  0 instructions:   89000002 cycles:   59794707 heartbeat IPC: 1.48426 cumulative IPC: 1.48843 (Simulation time: 0 hr 2 min 42 sec) 
Heartbeat CPU  0 instructions:   90000001 cycles:   60468081 heartbeat IPC: 1.48506 cumulative IPC: 1.48839 (Simulation time: 0 hr 2 min 44 sec) 
Heartbeat CPU  0 instructions:   91000000 cycles:   61141478 heartbeat IPC: 1.48501 cumulative IPC: 1.48835 (Simulation time: 0 hr 2 min 46 sec) 
Heartbeat CPU  0 instructions:   92000000 cycles:   61818019 heartbeat IPC: 1.47811 cumulative IPC: 1.48824 (Simulation time: 0 hr 2 min 48 sec) 
Heartbeat CPU  0 instructions:   93000001 cycles:   62497043 heartbeat IPC: 1.47270 cumulative IPC: 1.48807 (Simulation time: 0 hr 2 min 49 sec) 
Heartbeat CPU  0 instructions:   94000001 cycles:   63175968 heartbeat IPC: 1.47292 cumulative IPC: 1.48791 (Simulation time: 0 hr 2 min 51 sec) 
Heartbeat CPU  0 instructions:   95000001 cycles:   63854977 heartbeat IPC: 1.47273 cumulative IPC: 1.48775 (Simulation time: 0 hr 2 min 53 sec) 
Heartbeat CPU  0 instructions:   96000000 cycles:   64533973 heartbeat IPC: 1.47276 cumulative IPC: 1.48759 (Simulation time: 0 hr 2 min 55 sec) 
Heartbeat CPU  0 instructions:   97000000 cycles:   65213024 heartbeat IPC: 1.47264 cumulative IPC: 1.48743 (Simulation time: 0 hr 2 min 57 sec) 
Heartbeat CPU  0 instructions:   98000000 cycles:   65892049 heartbeat IPC: 1.47270 cumulative IPC: 1.48728 (Simulation time: 0 hr 2 min 58 sec) 
Heartbeat CPU  0 instructions:   99000000 cycles:   66571053 heartbeat IPC: 1.47275 cumulative IPC: 1.48713 (Simulation time: 0 hr 3 min 0 sec) 
Heartbeat CPU  0 instructions:  100000000 cycles:   67250055 heartbeat IPC: 1.47275 cumulative IPC: 1.48699 (Simulation time: 0 hr 3 min 2 sec) 

Warmup complete CPU  0 instructions:  100000001 cycles:   67250056 (Simulation time: 0 hr 3 min 2 sec) 

Heartbeat CPU  0 instructions:  101000000 cycles:   68384650 heartbeat IPC: 0.88137 cumulative IPC: 0.88137 (Simulation time: 0 hr 3 min 4 sec) 
Heartbeat CPU  0 instructions:  102000002 cycles:   69519008 heartbeat IPC: 0.88156 cumulative IPC: 0.88146 (Simulation time: 0 hr 3 min 6 sec) 
Heartbeat CPU  0 instructions:  103000001 cycles:   70654894 heartbeat IPC: 0.88037 cumulative IPC: 0.88110 (Simulation time: 0 hr 3 min 8 sec) 
Heartbeat CPU  0 instructions:  104000000 cycles:   71788801 heartbeat IPC: 0.88191 cumulative IPC: 0.88130 (Simulation time: 0 hr 3 min 10 sec) 
Heartbeat CPU  0 instructions:  105000001 cycles:   72924918 heartbeat IPC: 0.88019 cumulative IPC: 0.88108 (Simulation time: 0 hr 3 min 12 sec) 
Heartbeat CPU  0 instructions:  106000001 cycles:   74059318 heartbeat IPC: 0.88152 cumulative IPC: 0.88115 (Simulation time: 0 hr 3 min 14 sec) 
Heartbeat CPU  0 instructions:  107000002 cycles:   75419413 heartbeat IPC: 0.73524 cumulative IPC: 0.85686 (Simulation time: 0 hr 3 min 16 sec) 
Heartbeat CPU  0 instructions:  108000000 cycles:   76548636 heartbeat IPC: 0.88556 cumulative IPC: 0.86035 (Simulation time: 0 hr 3 min 18 sec) 
Heartbeat CPU  0 instructions:  109000000 cycles:   77676281 heartbeat IPC: 0.88680 cumulative IPC: 0.86321 (Simulation time: 0 hr 3 min 20 sec) 
Heartbeat CPU  0 instructions:  110000002 cycles:   78801983 heartbeat IPC: 0.88834 cumulative IPC: 0.86566 (Simulation time: 0 hr 3 min 22 sec) 
Heartbeat CPU  0 instructions:  111000000 cycles:   79924903 heartbeat IPC: 0.89053 cumulative IPC: 0.86786 (Simulation time: 0 hr 3 min 24 sec) 
Heartbeat CPU  0 instructions:  112000000 cycles:   81049565 heartbeat IPC: 0.88916 cumulative IPC: 0.86960 (Simulation time: 0 hr 3 min 26 sec) 
Heartbeat CPU  0 instructions:  113000000 cycles:   82177467 heartbeat IPC: 0.88660 cumulative IPC: 0.87088 (Simulation time: 0 hr 3 min 28 sec) 
Heartbeat CPU  0 instructions:  114000002 cycles:   83307848 heartbeat IPC: 0.88466 cumulative IPC: 0.87185 (Simulation time: 0 hr 3 min 30 sec) 
Heartbeat CPU  0 instructions:  115000002 cycles:   84437564 heartbeat IPC: 0.88518 cumulative IPC: 0.87273 (Simulation time: 0 hr 3 min 32 sec) 
Heartbeat CPU  0 instructions:  116000000 cycles:   85568090 heartbeat IPC: 0.88454 cumulative IPC: 0.87346 (Simulation time: 0 hr 3 min 34 sec) 
Heartbeat CPU  0 instructions:  117000002 cycles:   86698954 heartbeat IPC: 0.88428 cumulative IPC: 0.87409 (Simulation time: 0 hr 3 min 36 sec) 
Heartbeat CPU  0 instructions:  118000000 cycles:   87825704 heartbeat IPC: 0.88751 cumulative IPC: 0.87482 (Simulation time: 0 hr 3 min 38 sec) 
Heartbeat CPU  0 instructions:  119000000 cycles:   88952769 heartbeat IPC: 0.88726 cumulative IPC: 0.87547 (Simulation time: 0 hr 3 min 40 sec) 
Heartbeat CPU  0 instructions:  120000000 cycles:   90073266 heartbeat IPC: 0.89246 cumulative IPC: 0.87630 (Simulation time: 0 hr 3 min 42 sec) 
Heartbeat CPU  0 instructions:  121000002 cycles:   91201077 heartbeat IPC: 0.88668 cumulative IPC: 0.87679 (Simulation time: 0 hr 3 min 44 sec) 
Heartbeat CPU  0 instructions:  122000002 cycles:   92326291 heartbeat IPC: 0.88872 cumulative IPC: 0.87732 (Simulation time: 0 hr 3 min 46 sec) 
Heartbeat CPU  0 instructions:  123000003 cycles:   93159005 heartbeat IPC: 1.20089 cumulative IPC: 0.88772 (Simulation time: 0 hr 3 min 48 sec) 
Heartbeat CPU  0 instructions:  124000000 cycles:   94027398 heartbeat IPC: 1.15155 cumulative IPC: 0.89628 (Simulation time: 0 hr 3 min 49 sec) 
Heartbeat CPU  0 instructions:  125000000 cycles:   95107944 heartbeat IPC: 0.92546 cumulative IPC: 0.89741 (Simulation time: 0 hr 3 min 51 sec) 
Heartbeat CPU  0 instructions:  126000001 cycles:   96255229 heartbeat IPC: 0.87162 cumulative IPC: 0.89639 (Simulation time: 0 hr 3 min 53 sec) 
Heartbeat CPU  0 instructions:  127000001 cycles:   97430537 heartbeat IPC: 0.85084 cumulative IPC: 0.89462 (Simulation time: 0 hr 3 min 54 sec) 
Heartbeat CPU  0 instructions:  128000000 cycles:   98627234 heartbeat IPC: 0.83563 cumulative IPC: 0.89237 (Simulation time: 0 hr 3 min 56 sec) 
Heartbeat CPU  0 instructions:  129000003 cycles:   99846861 heartbeat IPC: 0.81993 cumulative IPC: 0.88966 (Simulation time: 0 hr 3 min 58 sec) 
Heartbeat CPU  0 instructions:  130000002 cycles:  101034547 heartbeat IPC: 0.84197 cumulative IPC: 0.88798 (Simulation time: 0 hr 4 min 0 sec) 
Heartbeat CPU  0 instructions:  131000003 cycles:  102225783 heartbeat IPC: 0.83947 cumulative IPC: 0.88633 (Simulation time: 0 hr 4 min 1 sec) 
Heartbeat CPU  0 instructions:  132000000 cycles:  103411077 heartbeat IPC: 0.84367 cumulative IPC: 0.88493 (Simulation time: 0 hr 4 min 3 sec) 
Heartbeat CPU  0 instructions:  133000000 cycles:  104604733 heartbeat IPC: 0.83776 cumulative IPC: 0.88342 (Simulation time: 0 hr 4 min 5 sec) 
Heartbeat CPU  0 instructions:  134000002 cycles:  105791820 heartbeat IPC: 0.84240 cumulative IPC: 0.88216 (Simulation time: 0 hr 4 min 7 sec) 
Heartbeat CPU  0 instructions:  135000001 cycles:  106982676 heartbeat IPC: 0.83973 cumulative IPC: 0.88089 (Simulation time: 0 hr 4 min 8 sec) 
Heartbeat CPU  0 instructions:  136000000 cycles:  108161298 heartbeat IPC: 0.84845 cumulative IPC: 0.87995 (Simulation time: 0 hr 4 min 10 sec) 
Heartbeat CPU  0 instructions:  137000002 cycles:  109353123 heartbeat IPC: 0.83905 cumulative IPC: 0.87880 (Simulation time: 0 hr 4 min 12 sec) 
Heartbeat CPU  0 instructions:  138000000 cycles:  110535519 heartbeat IPC: 0.84574 cumulative IPC: 0.87789 (Simulation time: 0 hr 4 min 14 sec) 
Heartbeat CPU  0 instructions:  139000000 cycles:  111741705 heartbeat IPC: 0.82906 cumulative IPC: 0.87657 (Simulation time: 0 hr 4 min 15 sec) 
Heartbeat CPU  0 instructions:  140000000 cycles:  112935087 heartbeat IPC: 0.83795 cumulative IPC: 0.87556 (Simulation time: 0 hr 4 min 17 sec) 
Heartbeat CPU  0 instructions:  141000000 cycles:  114125028 heartbeat IPC: 0.84038 cumulative IPC: 0.87467 (Simulation time: 0 hr 4 min 19 sec) 
Heartbeat CPU  0 instructions:  142000001 cycles:  115300744 heartbeat IPC: 0.85055 cumulative IPC: 0.87408 (Simulation time: 0 hr 4 min 21 sec) 
Heartbeat CPU  0 instructions:  143000002 cycles:  116499159 heartbeat IPC: 0.83444 cumulative IPC: 0.87311 (Simulation time: 0 hr 4 min 22 sec) 
Heartbeat CPU  0 instructions:  144000000 cycles:  117710051 heartbeat IPC: 0.82584 cumulative IPC: 0.87198 (Simulation time: 0 hr 4 min 24 sec) 
Heartbeat CPU  0 instructions:  145000002 cycles:  118897035 heartbeat IPC: 0.84247 cumulative IPC: 0.87130 (Simulation time: 0 hr 4 min 26 sec) 
Heartbeat CPU  0 instructions:  146000000 cycles:  120104269 heartbeat IPC: 0.82834 cumulative IPC: 0.87032 (Simulation time: 0 hr 4 min 28 sec) 
Heartbeat CPU  0 instructions:  147000003 cycles:  121311654 heartbeat IPC: 0.82824 cumulative IPC: 0.86938 (Simulation time: 0 hr 4 min 29 sec) 
Heartbeat CPU  0 instructions:  148000000 cycles:  122579259 heartbeat IPC: 0.78889 cumulative IPC: 0.86753 (Simulation time: 0 hr 4 min 31 sec) 
Heartbeat CPU  0 instructions:  149000000 cycles:  124001845 heartbeat IPC: 0.70295 cumulative IPC: 0.86341 (Simulation time: 0 hr 4 min 33 sec) 
Heartbeat CPU  0 instructions:  150000002 cycles:  125457247 heartbeat IPC: 0.68710 cumulative IPC: 0.85900 (Simulation time: 0 hr 4 min 35 sec) 
Heartbeat CPU  0 instructions:  151000001 cycles:  126842556 heartbeat IPC: 0.72186 cumulative IPC: 0.85581 (Simulation time: 0 hr 4 min 36 sec) 
Heartbeat CPU  0 instructions:  152000000 cycles:  128186164 heartbeat IPC: 0.74426 cumulative IPC: 0.85335 (Simulation time: 0 hr 4 min 38 sec) 
Heartbeat CPU  0 instructions:  153000002 cycles:  129623754 heartbeat IPC: 0.69561 cumulative IPC: 0.84972 (Simulation time: 0 hr 4 min 40 sec) 
Heartbeat CPU  0 instructions:  154000003 cycles:  130991196 heartbeat IPC: 0.73129 cumulative IPC: 0.84718 (Simulation time: 0 hr 4 min 42 sec) 
Heartbeat CPU  0 instructions:  155000000 cycles:  132404599 heartbeat IPC: 0.70751 cumulative IPC: 0.84415 (Simulation time: 0 hr 4 min 44 sec) 
Heartbeat CPU  0 instructions:  156000000 cycles:  133791403 heartbeat IPC: 0.72108 cumulative IPC: 0.84158 (Simulation time: 0 hr 4 min 45 sec) 
Heartbeat CPU  0 instructions:  157000001 cycles:  135232358 heartbeat IPC: 0.69398 cumulative IPC: 0.83845 (Simulation time: 0 hr 4 min 47 sec) 
Heartbeat CPU  0 instructions:  158000001 cycles:  136608282 heartbeat IPC: 0.72678 cumulative IPC: 0.83624 (Simulation time: 0 hr 4 min 49 sec) 
Heartbeat CPU  0 instructions:  159000001 cycles:  138041729 heartbeat IPC: 0.69762 cumulative IPC: 0.83343 (Simulation time: 0 hr 4 min 51 sec) 
Heartbeat CPU  0 instructions:  160000000 cycles:  139441942 heartbeat IPC: 0.71418 cumulative IPC: 0.83112 (Simulation time: 0 hr 4 min 53 sec) 
Heartbeat CPU  0 instructions:  161000002 cycles:  140892447 heartbeat IPC: 0.68942 cumulative IPC: 0.82833 (Simulation time: 0 hr 4 min 54 sec) 
Heartbeat CPU  0 instructions:  162000003 cycles:  142293082 heartbeat IPC: 0.71396 cumulative IPC: 0.82619 (Simulation time: 0 hr 4 min 56 sec) 
Heartbeat CPU  0 instructions:  163000000 cycles:  143757141 heartbeat IPC: 0.68303 cumulative IPC: 0.82345 (Simulation time: 0 hr 4 min 58 sec) 
Heartbeat CPU  0 instructions:  164000000 cycles:  145164459 heartbeat IPC: 0.71057 cumulative IPC: 0.82141 (Simulation time: 0 hr 5 min 0 sec) 
Heartbeat CPU  0 instructions:  165000000 cycles:  146603436 heartbeat IPC: 0.69494 cumulative IPC: 0.81912 (Simulation time: 0 hr 5 min 2 sec) 
Heartbeat CPU  0 instructions:  166000001 cycles:  147973619 heartbeat IPC: 0.72983 cumulative IPC: 0.81761 (Simulation time: 0 hr 5 min 4 sec) 
Heartbeat CPU  0 instructions:  167000001 cycles:  149417082 heartbeat IPC: 0.69278 cumulative IPC: 0.81541 (Simulation time: 0 hr 5 min 5 sec) 
Heartbeat CPU  0 instructions:  168000000 cycles:  150819661 heartbeat IPC: 0.71297 cumulative IPC: 0.81369 (Simulation time: 0 hr 5 min 7 sec) 
Heartbeat CPU  0 instructions:  169000002 cycles:  152225780 heartbeat IPC: 0.71118 cumulative IPC: 0.81200 (Simulation time: 0 hr 5 min 9 sec) 
Heartbeat CPU  0 instructions:  170000003 cycles:  153630194 heartbeat IPC: 0.71204 cumulative IPC: 0.81037 (Simulation time: 0 hr 5 min 11 sec) 
Heartbeat CPU  0 instructions:  171000000 cycles:  155030275 heartbeat IPC: 0.71424 cumulative IPC: 0.80884 (Simulation time: 0 hr 5 min 12 sec) 
Heartbeat CPU  0 instructions:  172000000 cycles:  156419318 heartbeat IPC: 0.71992 cumulative IPC: 0.80745 (Simulation time: 0 hr 5 min 14 sec) 
Heartbeat CPU  0 instructions:  173000001 cycles:  157818779 heartbeat IPC: 0.71456 cumulative IPC: 0.80602 (Simulation time: 0 hr 5 min 16 sec) 
Heartbeat CPU  0 instructions:  174000001 cycles:  159266298 heartbeat IPC: 0.69084 cumulative IPC: 0.80421 (Simulation time: 0 hr 5 min 18 sec) 
Heartbeat CPU  0 instructions:  175000002 cycles:  160626696 heartbeat IPC: 0.73508 cumulative IPC: 0.80320 (Simulation time: 0 hr 5 min 20 sec) 
Heartbeat CPU  0 instructions:  176000000 cycles:  162054988 heartbeat IPC: 0.70014 cumulative IPC: 0.80165 (Simulation time: 0 hr 5 min 21 sec) 
Heartbeat CPU  0 instructions:  177000003 cycles:  163418771 heartbeat IPC: 0.73326 cumulative IPC: 0.80068 (Simulation time: 0 hr 5 min 23 sec) 
Heartbeat CPU  0 instructions:  178000003 cycles:  164851385 heartbeat IPC: 0.69802 cumulative IPC: 0.79917 (Simulation time: 0 hr 5 min 25 sec) 
Heartbeat CPU  0 instructions:  179000001 cycles:  166209150 heartbeat IPC: 0.73650 cumulative IPC: 0.79831 (Simulation time: 0 hr 5 min 27 sec) 
Heartbeat CPU  0 instructions:  180000000 cycles:  167640693 heartbeat IPC: 0.69855 cumulative IPC: 0.79689 (Simulation time: 0 hr 5 min 29 sec) 
Heartbeat CPU  0 instructions:  181000001 cycles:  169050357 heartbeat IPC: 0.70939 cumulative IPC: 0.79568 (Simulation time: 0 hr 5 min 31 sec) 
Heartbeat CPU  0 instructions:  182000001 cycles:  170478789 heartbeat IPC: 0.70007 cumulative IPC: 0.79435 (Simulation time: 0 hr 5 min 33 sec) 
Heartbeat CPU  0 instructions:  183000002 cycles:  171859780 heartbeat IPC: 0.72412 cumulative IPC: 0.79343 (Simulation time: 0 hr 5 min 34 sec) 
Heartbeat CPU  0 instructions:  184000000 cycles:  173319658 heartbeat IPC: 0.68499 cumulative IPC: 0.79193 (Simulation time: 0 hr 5 min 36 sec) 
Heartbeat CPU  0 instructions:  185000003 cycles:  174700878 heartbeat IPC: 0.72400 cumulative IPC: 0.79106 (Simulation time: 0 hr 5 min 38 sec) 
Heartbeat CPU  0 instructions:  186000003 cycles:  176131010 heartbeat IPC: 0.69924 cumulative IPC: 0.78985 (Simulation time: 0 hr 5 min 40 sec) 
Heartbeat CPU  0 instructions:  187000000 cycles:  177542114 heartbeat IPC: 0.70866 cumulative IPC: 0.78881 (Simulation time: 0 hr 5 min 42 sec) 
Heartbeat CPU  0 instructions:  188000000 cycles:  178997931 heartbeat IPC: 0.68690 cumulative IPC: 0.78749 (Simulation time: 0 hr 5 min 43 sec) 
Heartbeat CPU  0 instructions:  189000001 cycles:  180349129 heartbeat IPC: 0.74008 cumulative IPC: 0.78692 (Simulation time: 0 hr 5 min 45 sec) 
Heartbeat CPU  0 instructions:  190000001 cycles:  181794438 heartbeat IPC: 0.69189 cumulative IPC: 0.78572 (Simulation time: 0 hr 5 min 47 sec) 
Heartbeat CPU  0 instructions:  191000002 cycles:  183213050 heartbeat IPC: 0.70492 cumulative IPC: 0.78473 (Simulation time: 0 hr 5 min 49 sec) 
Heartbeat CPU  0 instructions:  192000000 cycles:  184628401 heartbeat IPC: 0.70654 cumulative IPC: 0.78379 (Simulation time: 0 hr 5 min 51 sec) 
Heartbeat CPU  0 instructions:  193000003 cycles:  186023337 heartbeat IPC: 0.71688 cumulative IPC: 0.78300 (Simulation time: 0 hr 5 min 52 sec) 
Heartbeat CPU  0 instructions:  194000000 cycles:  187487875 heartbeat IPC: 0.68281 cumulative IPC: 0.78178 (Simulation time: 0 hr 5 min 54 sec) 
Heartbeat CPU  0 instructions:  195000000 cycles:  188833820 heartbeat IPC: 0.74297 cumulative IPC: 0.78135 (Simulation time: 0 hr 5 min 56 sec) 
Heartbeat CPU  0 instructions:  196000000 cycles:  190238801 heartbeat IPC: 0.71175 cumulative IPC: 0.78056 (Simulation time: 0 hr 5 min 58 sec) 
Heartbeat CPU  0 instructions:  197000002 cycles:  191633851 heartbeat IPC: 0.71682 cumulative IPC: 0.77984 (Simulation time: 0 hr 6 min 0 sec) 
Heartbeat CPU  0 instructions:  198000001 cycles:  193064025 heartbeat IPC: 0.69921 cumulative IPC: 0.77893 (Simulation time: 0 hr 6 min 2 sec) 
Heartbeat CPU  0 instructions:  199000003 cycles:  194452243 heartbeat IPC: 0.72035 cumulative IPC: 0.77829 (Simulation time: 0 hr 6 min 3 sec) 
Heartbeat CPU  0 instructions:  200000000 cycles:  195861455 heartbeat IPC: 0.70961 cumulative IPC: 0.77754 (Simulation time: 0 hr 6 min 5 sec) 
Finished CPU 0 instructions: 100000001 cycles: 128611407 cumulative IPC: 0.77754 (Simulation time: 0 hr 6 min 5 sec) 

ChampSim completed all CPUs

[ROI Statistics]
Core_0_instructions 100000001
Core_0_cycles 128611407
Core_0_IPC 0.77754

Core_0_branch_prediction_accuracy 99.52414
Core_0_branch_MPKI 0.08716
Core_0_average_ROB_occupancy_at_mispredict 253.73715

Core_0_L1D_total_access 32664712
Core_0_L1D_total_hit 30269256
Core_0_L1D_total_miss 2395456
Core_0_L1D_loads 26542399
Core_0_L1D_load_hit 24146968
Core_0_L1D_load_miss 2395431
Core_0_L1D_RFOs 6122313
Core_0_L1D_RFO_hit 6122288
Core_0_L1D_RFO_miss 25
Core_0_L1D_prefetches 0
Core_0_L1D_prefetch_hit 0
Core_0_L1D_prefetch_miss 0
Core_0_L1D_writebacks 0
Core_0_L1D_writeback_hit 0
Core_0_L1D_writeback_miss 0
Core_0_L1D_prefetch_requested 0
Core_0_L1D_prefetch_issued 0
Core_0_L1D_prefetch_useful 0
Core_0_L1D_prefetch_useless 0
Core_0_L1D_prefetch_late 0
Core_0_L1D_average_miss_latency 60.61244

Core_0_L1I_total_access 21117113
Core_0_L1I_total_hit 21117036
Core_0_L1I_total_miss 77
Core_0_L1I_loads 21117113
Core_0_L1I_load_hit 21117036
Core_0_L1I_load_miss 77
Core_0_L1I_RFOs 0
Core_0_L1I_RFO_hit 0
Core_0_L1I_RFO_miss 0
Core_0_L1I_prefetches 0
Core_0_L1I_prefetch_hit 0
Core_0_L1I_prefetch_miss 0
Core_0_L1I_writebacks 0
Core_0_L1I_writeback_hit 0
Core_0_L1I_writeback_miss 0
Core_0_L1I_prefetch_requested 0
Core_0_L1I_prefetch_issued 0
Core_0_L1I_prefetch_useful 0
Core_0_L1I_prefetch_useless 0
Core_0_L1I_prefetch_late 0
Core_0_L1I_average_miss_latency 181.98701

Core_0_L2C_total_access 5092379
Core_0_L2C_total_hit 3111448
Core_0_L2C_total_miss 1980931
Core_0_L2C_loads 2395506
Core_0_L2C_load_hit 1939184
Core_0_L2C_load_miss 456322
Core_0_L2C_RFOs 25
Core_0_L2C_RFO_hit 0
Core_0_L2C_RFO_miss 25
Core_0_L2C_prefetches 2016565
Core_0_L2C_prefetch_hit 492084
Core_0_L2C_prefetch_miss 1524481
Core_0_L2C_writebacks 680283
Core_0_L2C_writeback_hit 680180
Core_0_L2C_writeback_miss 103
Core_0_L2C_prefetch_requested 5931309
Core_0_L2C_prefetch_issued 5838377
Core_0_L2C_prefetch_useful 1696845
Core_0_L2C_prefetch_useless 540966
Core_0_L2C_prefetch_late 333731
Core_0_L2C_average_miss_latency 187.43634

Core_0_LLC_total_access 3390510
Core_0_LLC_total_hit 1384196
Core_0_LLC_total_miss 2006314
Core_0_LLC_loads 122614
Core_0_LLC_load_hit 17040
Core_0_LLC_load_miss 105574
Core_0_LLC_RFOs 25
Core_0_LLC_RFO_hit 0
Core_0_LLC_RFO_miss 25
Core_0_LLC_prefetches 2592473
Core_0_LLC_prefetch_hit 734373
Core_0_LLC_prefetch_miss 1858100
Core_0_LLC_writebacks 675398
Core_0_LLC_writeback_hit 632783
Core_0_LLC_writeback_miss 42615
Core_0_LLC_prefetch_requested 2383836
Core_0_LLC_prefetch_issued 2347509
Core_0_LLC_prefetch_useful 49919
Core_0_LLC_prefetch_useless 2396287
Core_0_LLC_prefetch_late 150
Core_0_LLC_average_miss_latency 369.47648

Core_0_major_page_fault 0
Core_0_minor_page_fault 80857

CPU 0 L2C next line prefetcher final stats
LLC Next Line Prefetcher Final Stats: none
Channel_0_RQ_row_buffer_hit 460929
Channel_0_RQ_row_buffer_miss 1502770
Channel_0_WQ_row_buffer_hit 106920
Channel_0_WQ_row_buffer_miss 554799
Channel_0_WQ_full 0
Channel_0_dbus_congested 1195944

avg_congested_cycle 10
