*************************************************
   ChampSim Multicore Out-of-Order Simulator
   Last compiled: Dec 25 2023 16:15:48
*************************************************

trace_0 ./test_trace/459.GemsFDTD-1320B.champsimtrace.xz
CPU 0 L1D next line prefetcher
CPU 0 L2C IP-based stride prefetcher
Initialize DRRIP state
Assign rand_sets[0]: 454  LLC: 2048
rand_sets[0]: 454
Assign rand_sets[1]: 1662  LLC: 2048
rand_sets[1]: 1662
Assign rand_sets[2]: 1921  LLC: 2048
rand_sets[2]: 1921
Assign rand_sets[3]: 1131  LLC: 2048
rand_sets[3]: 1131
Assign rand_sets[4]: 331  LLC: 2048
rand_sets[4]: 331
Assign rand_sets[5]: 1531  LLC: 2048
rand_sets[5]: 1531
Assign rand_sets[6]: 482  LLC: 2048
rand_sets[6]: 482
Assign rand_sets[7]: 1275  LLC: 2048
rand_sets[7]: 1275
Assign rand_sets[8]: 1876  LLC: 2048
rand_sets[8]: 1876
Assign rand_sets[9]: 2038  LLC: 2048
rand_sets[9]: 2038
Assign rand_sets[10]: 701  LLC: 2048
rand_sets[10]: 701
Assign rand_sets[11]: 479  LLC: 2048
rand_sets[11]: 479
Assign rand_sets[12]: 892  LLC: 2048
rand_sets[12]: 892
Assign rand_sets[13]: 1820  LLC: 2048
rand_sets[13]: 1820
Assign rand_sets[14]: 1505  LLC: 2048
rand_sets[14]: 1505
Assign rand_sets[15]: 1159  LLC: 2048
rand_sets[15]: 1159
Assign rand_sets[16]: 513  LLC: 2048
rand_sets[16]: 513
Assign rand_sets[17]: 703  LLC: 2048
rand_sets[17]: 703
Assign rand_sets[18]: 561  LLC: 2048
rand_sets[18]: 561
Assign rand_sets[19]: 990  LLC: 2048
rand_sets[19]: 990
Assign rand_sets[20]: 342  LLC: 2048
rand_sets[20]: 342
Assign rand_sets[21]: 882  LLC: 2048
rand_sets[21]: 882
Assign rand_sets[22]: 15  LLC: 2048
rand_sets[22]: 15
Assign rand_sets[23]: 71  LLC: 2048
rand_sets[23]: 71
Assign rand_sets[24]: 1127  LLC: 2048
rand_sets[24]: 1127
Assign rand_sets[25]: 1382  LLC: 2048
rand_sets[25]: 1382
Assign rand_sets[26]: 647  LLC: 2048
rand_sets[26]: 647
Assign rand_sets[27]: 857  LLC: 2048
rand_sets[27]: 857
Assign rand_sets[28]: 1450  LLC: 2048
rand_sets[28]: 1450
Assign rand_sets[29]: 1160  LLC: 2048
rand_sets[29]: 1160
Assign rand_sets[30]: 1852  LLC: 2048
rand_sets[30]: 1852
Assign rand_sets[31]: 1881  LLC: 2048
rand_sets[31]: 1881
Assign rand_sets[32]: 1770  LLC: 2048
rand_sets[32]: 1770
Assign rand_sets[33]: 1622  LLC: 2048
rand_sets[33]: 1622
Assign rand_sets[34]: 275  LLC: 2048
rand_sets[34]: 275
Assign rand_sets[35]: 635  LLC: 2048
rand_sets[35]: 635
Assign rand_sets[36]: 466  LLC: 2048
rand_sets[36]: 466
Assign rand_sets[37]: 1413  LLC: 2048
rand_sets[37]: 1413
Assign rand_sets[38]: 417  LLC: 2048
rand_sets[38]: 417
Assign rand_sets[39]: 472  LLC: 2048
rand_sets[39]: 472
Assign rand_sets[40]: 1340  LLC: 2048
rand_sets[40]: 1340
Assign rand_sets[41]: 852  LLC: 2048
rand_sets[41]: 852
Assign rand_sets[42]: 1365  LLC: 2048
rand_sets[42]: 1365
Assign rand_sets[43]: 47  LLC: 2048
rand_sets[43]: 47
Assign rand_sets[44]: 823  LLC: 2048
rand_sets[44]: 823
Assign rand_sets[45]: 686  LLC: 2048
rand_sets[45]: 686
Assign rand_sets[46]: 1637  LLC: 2048
rand_sets[46]: 1637
Assign rand_sets[47]: 1115  LLC: 2048
rand_sets[47]: 1115
Assign rand_sets[48]: 986  LLC: 2048
rand_sets[48]: 986
Assign rand_sets[49]: 258  LLC: 2048
rand_sets[49]: 258
Assign rand_sets[50]: 633  LLC: 2048
rand_sets[50]: 633
Assign rand_sets[51]: 920  LLC: 2048
rand_sets[51]: 920
Assign rand_sets[52]: 204  LLC: 2048
rand_sets[52]: 204
Assign rand_sets[53]: 227  LLC: 2048
rand_sets[53]: 227
Assign rand_sets[54]: 1818  LLC: 2048
rand_sets[54]: 1818
Assign rand_sets[55]: 886  LLC: 2048
rand_sets[55]: 886
Assign rand_sets[56]: 1422  LLC: 2048
rand_sets[56]: 1422
Assign rand_sets[57]: 607  LLC: 2048
rand_sets[57]: 607
Assign rand_sets[58]: 217  LLC: 2048
rand_sets[58]: 217
Assign rand_sets[59]: 1945  LLC: 2048
rand_sets[59]: 1945
Assign rand_sets[60]: 143  LLC: 2048
rand_sets[60]: 143
Assign rand_sets[61]: 1311  LLC: 2048
rand_sets[61]: 1311
Assign rand_sets[62]: 319  LLC: 2048
rand_sets[62]: 319
Assign rand_sets[63]: 1846  LLC: 2048
rand_sets[63]: 1846
warmup_instructions 100000000
simulation_instructions 100000000
champsim_seed 264

num_cpus 1
cpu_freq 4000
dram_io_freq 2400
page_size 4096
block_size 64
max_read_per_cycle 8
max_fill_per_cycle 1
dram_channels 1
dram_ranks 1
dram_banks 8
dram_rows 65536
dram_columns 128
dram_row_size 8
dram_size 4096
dram_pages 1048576

fetch_width 6
decode_width 6
exec_width 4
lq_width 2
sq_width 2
retire_width 4
scheduler_size 128
branch_mispredict_penalty 20
rob_size 256
lq_size 72
sq_size 56
num_instr_destinations_sparc 4
num_instr_destinations 2
num_instr_sources 4

itlb_set 16
itlb_way 8
itlb_rq_size 16
itlb_wq_size 16
itlb_pq_size 0
itlb_mshr_size 8
itlb_latency 1

dtlb_set 16
dtlb_way 4
dtlb_rq_size 16
dtlb_wq_size 16
dtlb_pq_size 0
dtlb_mshr_size 8
dtlb_latency 1

stlb_set 128
stlb_way 12
stlb_rq_size 32
stlb_wq_size 32
stlb_pq_size 0
stlb_mshr_size 16
stlb_latency 8

l1i_size 32
l1i_set 64
l1i_way 8
l1i_rq_size 64
l1i_wq_size 64
l1i_pq_size 8
l1i_mshr_size 8
l1i_latency 1

l1d_size 32
l1d_set 64
l1d_way 8
l1d_rq_size 64
l1d_wq_size 64
l1d_pq_size 8
l1d_mshr_size 16
l1d_latency 4

l2c_size 512
l2c_set 1024
l2c_way 8
l2c_rq_size 32
l2c_wq_size 32
l2c_pq_size 16
l2c_mshr_size 32
l2c_latency 10

llc_size 2048
llc_set 2048
llc_way 16
llc_rq_size 32
llc_wq_size 32
llc_pq_size 32
llc_mshr_size 64
llc_latency 20

dram_channel_width 8
dram_wq_size 64
dram_rq_size 64
tRP 15
tRCD 15
tCAS 12.5
dram_dbus_turn_around_time 30
dram_write_high_wm 56
dram_write_low_wm 48
min_dram_writes_per_switch 16
dram_mtps 2400
dram_dbus_return_time 13


Heartbeat CPU  0 instructions:    1000000 cycles:     673355 heartbeat IPC: 1.48510 cumulative IPC: 1.48510 (Simulation time: 0 hr 0 min 2 sec) 
Heartbeat CPU  0 instructions:    2000003 cycles:    1346153 heartbeat IPC: 1.48633 cumulative IPC: 1.48572 (Simulation time: 0 hr 0 min 4 sec) 
Heartbeat CPU  0 instructions:    3000002 cycles:    2018968 heartbeat IPC: 1.48629 cumulative IPC: 1.48591 (Simulation time: 0 hr 0 min 6 sec) 
Heartbeat CPU  0 instructions:    4000000 cycles:    2691825 heartbeat IPC: 1.48620 cumulative IPC: 1.48598 (Simulation time: 0 hr 0 min 8 sec) 
Heartbeat CPU  0 instructions:    5000001 cycles:    3364661 heartbeat IPC: 1.48625 cumulative IPC: 1.48603 (Simulation time: 0 hr 0 min 10 sec) 
Heartbeat CPU  0 instructions:    6000001 cycles:    4036958 heartbeat IPC: 1.48744 cumulative IPC: 1.48627 (Simulation time: 0 hr 0 min 12 sec) 
Heartbeat CPU  0 instructions:    7000001 cycles:    4709322 heartbeat IPC: 1.48729 cumulative IPC: 1.48641 (Simulation time: 0 hr 0 min 14 sec) 
Heartbeat CPU  0 instructions:    8000000 cycles:    5381918 heartbeat IPC: 1.48678 cumulative IPC: 1.48646 (Simulation time: 0 hr 0 min 16 sec) 
Heartbeat CPU  0 instructions:    9000003 cycles:    6054444 heartbeat IPC: 1.48694 cumulative IPC: 1.48651 (Simulation time: 0 hr 0 min 18 sec) 
Heartbeat CPU  0 instructions:   10000003 cycles:    6727112 heartbeat IPC: 1.48662 cumulative IPC: 1.48652 (Simulation time: 0 hr 0 min 20 sec) 
Heartbeat CPU  0 instructions:   11000003 cycles:    7399798 heartbeat IPC: 1.48658 cumulative IPC: 1.48653 (Simulation time: 0 hr 0 min 22 sec) 
Heartbeat CPU  0 instructions:   12000000 cycles:    8072368 heartbeat IPC: 1.48683 cumulative IPC: 1.48655 (Simulation time: 0 hr 0 min 24 sec) 
Heartbeat CPU  0 instructions:   13000000 cycles:    8750045 heartbeat IPC: 1.47563 cumulative IPC: 1.48571 (Simulation time: 0 hr 0 min 26 sec) 
Heartbeat CPU  0 instructions:   14000002 cycles:    9428969 heartbeat IPC: 1.47292 cumulative IPC: 1.48479 (Simulation time: 0 hr 0 min 28 sec) 
Heartbeat CPU  0 instructions:   15000000 cycles:   10108024 heartbeat IPC: 1.47263 cumulative IPC: 1.48397 (Simulation time: 0 hr 0 min 30 sec) 
Heartbeat CPU  0 instructions:   16000000 cycles:   10787059 heartbeat IPC: 1.47268 cumulative IPC: 1.48326 (Simulation time: 0 hr 0 min 31 sec) 
Heartbeat CPU  0 instructions:   17000002 cycles:   11466163 heartbeat IPC: 1.47253 cumulative IPC: 1.48262 (Simulation time: 0 hr 0 min 33 sec) 
Heartbeat CPU  0 instructions:   18000003 cycles:   12145169 heartbeat IPC: 1.47274 cumulative IPC: 1.48207 (Simulation time: 0 hr 0 min 35 sec) 
Heartbeat CPU  0 instructions:   19000003 cycles:   12824178 heartbeat IPC: 1.47273 cumulative IPC: 1.48158 (Simulation time: 0 hr 0 min 37 sec) 
Heartbeat CPU  0 instructions:   20000000 cycles:   13503256 heartbeat IPC: 1.47258 cumulative IPC: 1.48112 (Simulation time: 0 hr 0 min 39 sec) 
Heartbeat CPU  0 instructions:   21000002 cycles:   14182385 heartbeat IPC: 1.47248 cumulative IPC: 1.48071 (Simulation time: 0 hr 0 min 41 sec) 
Heartbeat CPU  0 instructions:   22000000 cycles:   14861497 heartbeat IPC: 1.47251 cumulative IPC: 1.48034 (Simulation time: 0 hr 0 min 43 sec) 
Heartbeat CPU  0 instructions:   23000000 cycles:   15540497 heartbeat IPC: 1.47275 cumulative IPC: 1.48000 (Simulation time: 0 hr 0 min 45 sec) 
Heartbeat CPU  0 instructions:   24000000 cycles:   16219514 heartbeat IPC: 1.47272 cumulative IPC: 1.47970 (Simulation time: 0 hr 0 min 47 sec) 
Heartbeat CPU  0 instructions:   25000001 cycles:   16898639 heartbeat IPC: 1.47248 cumulative IPC: 1.47941 (Simulation time: 0 hr 0 min 49 sec) 
Heartbeat CPU  0 instructions:   26000001 cycles:   17577666 heartbeat IPC: 1.47270 cumulative IPC: 1.47915 (Simulation time: 0 hr 0 min 50 sec) 
Heartbeat CPU  0 instructions:   27000001 cycles:   18256673 heartbeat IPC: 1.47274 cumulative IPC: 1.47891 (Simulation time: 0 hr 0 min 52 sec) 
Heartbeat CPU  0 instructions:   28000000 cycles:   18935004 heartbeat IPC: 1.47421 cumulative IPC: 1.47874 (Simulation time: 0 hr 0 min 54 sec) 
Heartbeat CPU  0 instructions:   29000002 cycles:   19611642 heartbeat IPC: 1.47790 cumulative IPC: 1.47871 (Simulation time: 0 hr 0 min 56 sec) 
Heartbeat CPU  0 instructions:   30000000 cycles:   20288252 heartbeat IPC: 1.47795 cumulative IPC: 1.47869 (Simulation time: 0 hr 0 min 58 sec) 
Heartbeat CPU  0 instructions:   31000000 cycles:   20964844 heartbeat IPC: 1.47800 cumulative IPC: 1.47867 (Simulation time: 0 hr 1 min 0 sec) 
Heartbeat CPU  0 instructions:   32000000 cycles:   21641417 heartbeat IPC: 1.47804 cumulative IPC: 1.47865 (Simulation time: 0 hr 1 min 2 sec) 
Heartbeat CPU  0 instructions:   33000002 cycles:   22318161 heartbeat IPC: 1.47767 cumulative IPC: 1.47862 (Simulation time: 0 hr 1 min 4 sec) 
Heartbeat CPU  0 instructions:   34000000 cycles:   22994768 heartbeat IPC: 1.47796 cumulative IPC: 1.47860 (Simulation time: 0 hr 1 min 6 sec) 
Heartbeat CPU  0 instructions:   35000002 cycles:   23671435 heartbeat IPC: 1.47783 cumulative IPC: 1.47858 (Simulation time: 0 hr 1 min 7 sec) 
Heartbeat CPU  0 instructions:   36000000 cycles:   24347964 heartbeat IPC: 1.47813 cumulative IPC: 1.47856 (Simulation time: 0 hr 1 min 9 sec) 
Heartbeat CPU  0 instructions:   37000000 cycles:   25024792 heartbeat IPC: 1.47748 cumulative IPC: 1.47853 (Simulation time: 0 hr 1 min 11 sec) 
Heartbeat CPU  0 instructions:   38000000 cycles:   25701395 heartbeat IPC: 1.47797 cumulative IPC: 1.47852 (Simulation time: 0 hr 1 min 13 sec) 
Heartbeat CPU  0 instructions:   39000002 cycles:   26378095 heartbeat IPC: 1.47776 cumulative IPC: 1.47850 (Simulation time: 0 hr 1 min 15 sec) 
Heartbeat CPU  0 instructions:   40000000 cycles:   27054857 heartbeat IPC: 1.47762 cumulative IPC: 1.47848 (Simulation time: 0 hr 1 min 17 sec) 
Heartbeat CPU  0 instructions:   41000000 cycles:   27731710 heartbeat IPC: 1.47743 cumulative IPC: 1.47845 (Simulation time: 0 hr 1 min 19 sec) 
Heartbeat CPU  0 instructions:   42000002 cycles:   28408346 heartbeat IPC: 1.47790 cumulative IPC: 1.47844 (Simulation time: 0 hr 1 min 21 sec) 
Heartbeat CPU  0 instructions:   43000002 cycles:   29084960 heartbeat IPC: 1.47795 cumulative IPC: 1.47843 (Simulation time: 0 hr 1 min 23 sec) 
Heartbeat CPU  0 instructions:   44000000 cycles:   29751285 heartbeat IPC: 1.50077 cumulative IPC: 1.47893 (Simulation time: 0 hr 1 min 25 sec) 
Heartbeat CPU  0 instructions:   45000003 cycles:   30417462 heartbeat IPC: 1.50111 cumulative IPC: 1.47941 (Simulation time: 0 hr 1 min 26 sec) 
Heartbeat CPU  0 instructions:   46000001 cycles:   31083435 heartbeat IPC: 1.50156 cumulative IPC: 1.47989 (Simulation time: 0 hr 1 min 28 sec) 
Heartbeat CPU  0 instructions:   47000000 cycles:   31749472 heartbeat IPC: 1.50142 cumulative IPC: 1.48034 (Simulation time: 0 hr 1 min 30 sec) 
Heartbeat CPU  0 instructions:   48000000 cycles:   32415348 heartbeat IPC: 1.50178 cumulative IPC: 1.48078 (Simulation time: 0 hr 1 min 32 sec) 
Heartbeat CPU  0 instructions:   49000000 cycles:   33081313 heartbeat IPC: 1.50158 cumulative IPC: 1.48120 (Simulation time: 0 hr 1 min 34 sec) 
Heartbeat CPU  0 instructions:   50000003 cycles:   33747498 heartbeat IPC: 1.50109 cumulative IPC: 1.48159 (Simulation time: 0 hr 1 min 36 sec) 
Heartbeat CPU  0 instructions:   51000003 cycles:   34413441 heartbeat IPC: 1.50163 cumulative IPC: 1.48198 (Simulation time: 0 hr 1 min 38 sec) 
Heartbeat CPU  0 instructions:   52000000 cycles:   35079596 heartbeat IPC: 1.50115 cumulative IPC: 1.48234 (Simulation time: 0 hr 1 min 40 sec) 
Heartbeat CPU  0 instructions:   53000003 cycles:   35745659 heartbeat IPC: 1.50136 cumulative IPC: 1.48270 (Simulation time: 0 hr 1 min 42 sec) 
Heartbeat CPU  0 instructions:   54000000 cycles:   36411538 heartbeat IPC: 1.50177 cumulative IPC: 1.48305 (Simulation time: 0 hr 1 min 44 sec) 
Heartbeat CPU  0 instructions:   55000000 cycles:   37077652 heartbeat IPC: 1.50124 cumulative IPC: 1.48337 (Simulation time: 0 hr 1 min 46 sec) 
Heartbeat CPU  0 instructions:   56000000 cycles:   37739263 heartbeat IPC: 1.51146 cumulative IPC: 1.48387 (Simulation time: 0 hr 1 min 48 sec) 
Heartbeat CPU  0 instructions:   57000003 cycles:   38400413 heartbeat IPC: 1.51252 cumulative IPC: 1.48436 (Simulation time: 0 hr 1 min 50 sec) 
Heartbeat CPU  0 instructions:   58000000 cycles:   39061573 heartbeat IPC: 1.51249 cumulative IPC: 1.48484 (Simulation time: 0 hr 1 min 52 sec) 
Heartbeat CPU  0 instructions:   59000000 cycles:   39722686 heartbeat IPC: 1.51260 cumulative IPC: 1.48530 (Simulation time: 0 hr 1 min 54 sec) 
Heartbeat CPU  0 instructions:   60000000 cycles:   40383640 heartbeat IPC: 1.51296 cumulative IPC: 1.48575 (Simulation time: 0 hr 1 min 56 sec) 
Heartbeat CPU  0 instructions:   61000001 cycles:   41045284 heartbeat IPC: 1.51139 cumulative IPC: 1.48616 (Simulation time: 0 hr 1 min 58 sec) 
Heartbeat CPU  0 instructions:   62000000 cycles:   41706484 heartbeat IPC: 1.51240 cumulative IPC: 1.48658 (Simulation time: 0 hr 2 min 0 sec) 
Heartbeat CPU  0 instructions:   63000001 cycles:   42367636 heartbeat IPC: 1.51251 cumulative IPC: 1.48698 (Simulation time: 0 hr 2 min 2 sec) 
Heartbeat CPU  0 instructions:   64000000 cycles:   43028737 heartbeat IPC: 1.51263 cumulative IPC: 1.48738 (Simulation time: 0 hr 2 min 4 sec) 
Heartbeat CPU  0 instructions:   65000003 cycles:   43689940 heartbeat IPC: 1.51240 cumulative IPC: 1.48776 (Simulation time: 0 hr 2 min 5 sec) 
Heartbeat CPU  0 instructions:   66000000 cycles:   44351020 heartbeat IPC: 1.51267 cumulative IPC: 1.48813 (Simulation time: 0 hr 2 min 7 sec) 
Heartbeat CPU  0 instructions:   67000000 cycles:   45012480 heartbeat IPC: 1.51181 cumulative IPC: 1.48848 (Simulation time: 0 hr 2 min 9 sec) 
Heartbeat CPU  0 instructions:   68000000 cycles:   45682603 heartbeat IPC: 1.49226 cumulative IPC: 1.48853 (Simulation time: 0 hr 2 min 11 sec) 
Heartbeat CPU  0 instructions:   69000002 cycles:   46353304 heartbeat IPC: 1.49098 cumulative IPC: 1.48857 (Simulation time: 0 hr 2 min 13 sec) 
Heartbeat CPU  0 instructions:   70000001 cycles:   47024335 heartbeat IPC: 1.49024 cumulative IPC: 1.48859 (Simulation time: 0 hr 2 min 15 sec) 
Heartbeat CPU  0 instructions:   71000002 cycles:   47695006 heartbeat IPC: 1.49105 cumulative IPC: 1.48863 (Simulation time: 0 hr 2 min 17 sec) 
Heartbeat CPU  0 instructions:   72000000 cycles:   48365873 heartbeat IPC: 1.49061 cumulative IPC: 1.48865 (Simulation time: 0 hr 2 min 19 sec) 
Heartbeat CPU  0 instructions:   73000000 cycles:   49036672 heartbeat IPC: 1.49076 cumulative IPC: 1.48868 (Simulation time: 0 hr 2 min 21 sec) 
Heartbeat CPU  0 instructions:   74000000 cycles:   49707328 heartbeat IPC: 1.49108 cumulative IPC: 1.48871 (Simulation time: 0 hr 2 min 23 sec) 
Heartbeat CPU  0 instructions:   75000001 cycles:   50378388 heartbeat IPC: 1.49018 cumulative IPC: 1.48873 (Simulation time: 0 hr 2 min 25 sec) 
Heartbeat CPU  0 instructions:   76000000 cycles:   51048945 heartbeat IPC: 1.49130 cumulative IPC: 1.48877 (Simulation time: 0 hr 2 min 27 sec) 
Heartbeat CPU  0 instructions:   77000000 cycles:   51719956 heartbeat IPC: 1.49029 cumulative IPC: 1.48879 (Simulation time: 0 hr 2 min 29 sec) 
Heartbeat CPU  0 instructions:   78000003 cycles:   52390639 heartbeat IPC: 1.49102 cumulative IPC: 1.48882 (Simulation time: 0 hr 2 min 31 sec) 
Heartbeat CPU  0 instructions:   79000002 cycles:   53061268 heartbeat IPC: 1.49114 cumulative IPC: 1.48884 (Simulation time: 0 hr 2 min 33 sec) 
Heartbeat CPU  0 instructions:   80000000 cycles:   53734087 heartbeat IPC: 1.48628 cumulative IPC: 1.48881 (Simulation time: 0 hr 2 min 34 sec) 
Heartbeat CPU  0 instructions:   81000003 cycles:   54407568 heartbeat IPC: 1.48483 cumulative IPC: 1.48876 (Simulation time: 0 hr 2 min 36 sec) 
Heartbeat CPU  0 instructions:   82000001 cycles:   55080537 heartbeat IPC: 1.48595 cumulative IPC: 1.48873 (Simulation time: 0 hr 2 min 38 sec) 
Heartbeat CPU  0 instructions:   83000002 cycles:   55753730 heartbeat IPC: 1.48546 cumulative IPC: 1.48869 (Simulation time: 0 hr 2 min 40 sec) 
Heartbeat CPU  0 instructions:   84000000 cycles:   56426480 heartbeat IPC: 1.48643 cumulative IPC: 1.48866 (Simulation time: 0 hr 2 min 42 sec) 
Heartbeat CPU  0 instructions:   85000000 cycles:   57099757 heartbeat IPC: 1.48527 cumulative IPC: 1.48862 (Simulation time: 0 hr 2 min 44 sec) 
Heartbeat CPU  0 instructions:   86000001 cycles:   57772842 heartbeat IPC: 1.48570 cumulative IPC: 1.48859 (Simulation time: 0 hr 2 min 46 sec) 
Heartbeat CPU  0 instructions:   87000000 cycles:   58445978 heartbeat IPC: 1.48558 cumulative IPC: 1.48855 (Simulation time: 0 hr 2 min 48 sec) 
Heartbeat CPU  0 instructions:   88000000 cycles:   59119286 heartbeat IPC: 1.48520 cumulative IPC: 1.48852 (Simulation time: 0 hr 2 min 50 sec) 
Heartbeat CPU  0 instructions:   89000002 cycles:   59792395 heartbeat IPC: 1.48565 cumulative IPC: 1.48848 (Simulation time: 0 hr 2 min 52 sec) 
Heartbeat CPU  0 instructions:   90000001 cycles:   60465432 heartbeat IPC: 1.48580 cumulative IPC: 1.48845 (Simulation time: 0 hr 2 min 54 sec) 
Heartbeat CPU  0 instructions:   91000000 cycles:   61138343 heartbeat IPC: 1.48608 cumulative IPC: 1.48843 (Simulation time: 0 hr 2 min 56 sec) 
Heartbeat CPU  0 instructions:   92000000 cycles:   61814623 heartbeat IPC: 1.47868 cumulative IPC: 1.48832 (Simulation time: 0 hr 2 min 58 sec) 
Heartbeat CPU  0 instructions:   93000001 cycles:   62493770 heartbeat IPC: 1.47244 cumulative IPC: 1.48815 (Simulation time: 0 hr 3 min 0 sec) 
Heartbeat CPU  0 instructions:   94000001 cycles:   63172749 heartbeat IPC: 1.47280 cumulative IPC: 1.48798 (Simulation time: 0 hr 3 min 2 sec) 
Heartbeat CPU  0 instructions:   95000001 cycles:   63851843 heartbeat IPC: 1.47255 cumulative IPC: 1.48782 (Simulation time: 0 hr 3 min 4 sec) 
Heartbeat CPU  0 instructions:   96000000 cycles:   64530882 heartbeat IPC: 1.47267 cumulative IPC: 1.48766 (Simulation time: 0 hr 3 min 6 sec) 
Heartbeat CPU  0 instructions:   97000000 cycles:   65209933 heartbeat IPC: 1.47264 cumulative IPC: 1.48750 (Simulation time: 0 hr 3 min 7 sec) 
Heartbeat CPU  0 instructions:   98000000 cycles:   65888969 heartbeat IPC: 1.47268 cumulative IPC: 1.48735 (Simulation time: 0 hr 3 min 9 sec) 
Heartbeat CPU  0 instructions:   99000000 cycles:   66567998 heartbeat IPC: 1.47269 cumulative IPC: 1.48720 (Simulation time: 0 hr 3 min 11 sec) 
Heartbeat CPU  0 instructions:  100000000 cycles:   67247031 heartbeat IPC: 1.47268 cumulative IPC: 1.48705 (Simulation time: 0 hr 3 min 13 sec) 

Warmup complete CPU  0 instructions:  100000001 cycles:   67247032 (Simulation time: 0 hr 3 min 13 sec) 

Heartbeat CPU  0 instructions:  101000000 cycles:   68389816 heartbeat IPC: 0.87506 cumulative IPC: 0.87506 (Simulation time: 0 hr 3 min 15 sec) 
Heartbeat CPU  0 instructions:  102000002 cycles:   69528314 heartbeat IPC: 0.87835 cumulative IPC: 0.87670 (Simulation time: 0 hr 3 min 17 sec) 
Heartbeat CPU  0 instructions:  103000001 cycles:   70667449 heartbeat IPC: 0.87786 cumulative IPC: 0.87709 (Simulation time: 0 hr 3 min 19 sec) 
Heartbeat CPU  0 instructions:  104000000 cycles:   71806101 heartbeat IPC: 0.87823 cumulative IPC: 0.87737 (Simulation time: 0 hr 3 min 22 sec) 
Heartbeat CPU  0 instructions:  105000001 cycles:   72945039 heartbeat IPC: 0.87801 cumulative IPC: 0.87750 (Simulation time: 0 hr 3 min 24 sec) 
Heartbeat CPU  0 instructions:  106000002 cycles:   74084945 heartbeat IPC: 0.87727 cumulative IPC: 0.87746 (Simulation time: 0 hr 3 min 26 sec) 
Heartbeat CPU  0 instructions:  107000002 cycles:   75447546 heartbeat IPC: 0.73389 cumulative IPC: 0.85361 (Simulation time: 0 hr 3 min 28 sec) 
Heartbeat CPU  0 instructions:  108000000 cycles:   76601020 heartbeat IPC: 0.86694 cumulative IPC: 0.85525 (Simulation time: 0 hr 3 min 30 sec) 
Heartbeat CPU  0 instructions:  109000000 cycles:   77756489 heartbeat IPC: 0.86545 cumulative IPC: 0.85637 (Simulation time: 0 hr 3 min 32 sec) 
Heartbeat CPU  0 instructions:  110000002 cycles:   78918671 heartbeat IPC: 0.86045 cumulative IPC: 0.85678 (Simulation time: 0 hr 3 min 34 sec) 
Heartbeat CPU  0 instructions:  111000000 cycles:   80070184 heartbeat IPC: 0.86842 cumulative IPC: 0.85782 (Simulation time: 0 hr 3 min 37 sec) 
Heartbeat CPU  0 instructions:  112000000 cycles:   81220787 heartbeat IPC: 0.86911 cumulative IPC: 0.85875 (Simulation time: 0 hr 3 min 39 sec) 
Heartbeat CPU  0 instructions:  113000000 cycles:   82367359 heartbeat IPC: 0.87217 cumulative IPC: 0.85977 (Simulation time: 0 hr 3 min 41 sec) 
Heartbeat CPU  0 instructions:  114000002 cycles:   83510126 heartbeat IPC: 0.87507 cumulative IPC: 0.86084 (Simulation time: 0 hr 3 min 43 sec) 
Heartbeat CPU  0 instructions:  115000002 cycles:   84655249 heartbeat IPC: 0.87327 cumulative IPC: 0.86166 (Simulation time: 0 hr 3 min 45 sec) 
Heartbeat CPU  0 instructions:  116000000 cycles:   85802370 heartbeat IPC: 0.87175 cumulative IPC: 0.86229 (Simulation time: 0 hr 3 min 47 sec) 
Heartbeat CPU  0 instructions:  117000002 cycles:   86952797 heartbeat IPC: 0.86924 cumulative IPC: 0.86269 (Simulation time: 0 hr 3 min 49 sec) 
Heartbeat CPU  0 instructions:  118000000 cycles:   88104433 heartbeat IPC: 0.86833 cumulative IPC: 0.86300 (Simulation time: 0 hr 3 min 51 sec) 
Heartbeat CPU  0 instructions:  119000000 cycles:   89253818 heartbeat IPC: 0.87003 cumulative IPC: 0.86337 (Simulation time: 0 hr 3 min 54 sec) 
Heartbeat CPU  0 instructions:  120000000 cycles:   90399275 heartbeat IPC: 0.87301 cumulative IPC: 0.86385 (Simulation time: 0 hr 3 min 56 sec) 
Heartbeat CPU  0 instructions:  121000002 cycles:   91553637 heartbeat IPC: 0.86628 cumulative IPC: 0.86396 (Simulation time: 0 hr 3 min 58 sec) 
Heartbeat CPU  0 instructions:  122000002 cycles:   92698285 heartbeat IPC: 0.87363 cumulative IPC: 0.86440 (Simulation time: 0 hr 4 min 0 sec) 
Heartbeat CPU  0 instructions:  123000003 cycles:   93509948 heartbeat IPC: 1.23204 cumulative IPC: 0.87576 (Simulation time: 0 hr 4 min 2 sec) 
Heartbeat CPU  0 instructions:  124000000 cycles:   94340732 heartbeat IPC: 1.20368 cumulative IPC: 0.88581 (Simulation time: 0 hr 4 min 3 sec) 
Heartbeat CPU  0 instructions:  125000000 cycles:   95398337 heartbeat IPC: 0.94553 cumulative IPC: 0.88806 (Simulation time: 0 hr 4 min 5 sec) 
Heartbeat CPU  0 instructions:  126000000 cycles:   96409639 heartbeat IPC: 0.98882 cumulative IPC: 0.89155 (Simulation time: 0 hr 4 min 7 sec) 
Heartbeat CPU  0 instructions:  127000001 cycles:   97489814 heartbeat IPC: 0.92578 cumulative IPC: 0.89277 (Simulation time: 0 hr 4 min 8 sec) 
Heartbeat CPU  0 instructions:  128000000 cycles:   98543335 heartbeat IPC: 0.94920 cumulative IPC: 0.89467 (Simulation time: 0 hr 4 min 10 sec) 
Heartbeat CPU  0 instructions:  129000002 cycles:   99612028 heartbeat IPC: 0.93572 cumulative IPC: 0.89603 (Simulation time: 0 hr 4 min 12 sec) 
Heartbeat CPU  0 instructions:  130000002 cycles:  100680671 heartbeat IPC: 0.93577 cumulative IPC: 0.89730 (Simulation time: 0 hr 4 min 14 sec) 
Heartbeat CPU  0 instructions:  131000003 cycles:  101731259 heartbeat IPC: 0.95185 cumulative IPC: 0.89896 (Simulation time: 0 hr 4 min 15 sec) 
Heartbeat CPU  0 instructions:  132000000 cycles:  102803217 heartbeat IPC: 0.93287 cumulative IPC: 0.89998 (Simulation time: 0 hr 4 min 17 sec) 
Heartbeat CPU  0 instructions:  133000000 cycles:  103862127 heartbeat IPC: 0.94437 cumulative IPC: 0.90127 (Simulation time: 0 hr 4 min 19 sec) 
Heartbeat CPU  0 instructions:  134000001 cycles:  104932451 heartbeat IPC: 0.93430 cumulative IPC: 0.90221 (Simulation time: 0 hr 4 min 20 sec) 
Heartbeat CPU  0 instructions:  135000001 cycles:  106004660 heartbeat IPC: 0.93265 cumulative IPC: 0.90305 (Simulation time: 0 hr 4 min 22 sec) 
Heartbeat CPU  0 instructions:  136000000 cycles:  107075347 heartbeat IPC: 0.93398 cumulative IPC: 0.90388 (Simulation time: 0 hr 4 min 24 sec) 
Heartbeat CPU  0 instructions:  137000002 cycles:  108134869 heartbeat IPC: 0.94382 cumulative IPC: 0.90491 (Simulation time: 0 hr 4 min 26 sec) 
Heartbeat CPU  0 instructions:  138000003 cycles:  109206751 heartbeat IPC: 0.93294 cumulative IPC: 0.90563 (Simulation time: 0 hr 4 min 27 sec) 
Heartbeat CPU  0 instructions:  139000000 cycles:  110270201 heartbeat IPC: 0.94033 cumulative IPC: 0.90649 (Simulation time: 0 hr 4 min 29 sec) 
Heartbeat CPU  0 instructions:  140000000 cycles:  111347330 heartbeat IPC: 0.92839 cumulative IPC: 0.90702 (Simulation time: 0 hr 4 min 31 sec) 
Heartbeat CPU  0 instructions:  141000000 cycles:  112396429 heartbeat IPC: 0.95320 cumulative IPC: 0.90810 (Simulation time: 0 hr 4 min 33 sec) 
Heartbeat CPU  0 instructions:  142000001 cycles:  113461229 heartbeat IPC: 0.93914 cumulative IPC: 0.90881 (Simulation time: 0 hr 4 min 34 sec) 
Heartbeat CPU  0 instructions:  143000002 cycles:  114519633 heartbeat IPC: 0.94482 cumulative IPC: 0.90962 (Simulation time: 0 hr 4 min 36 sec) 
Heartbeat CPU  0 instructions:  144000000 cycles:  115573495 heartbeat IPC: 0.94889 cumulative IPC: 0.91047 (Simulation time: 0 hr 4 min 38 sec) 
Heartbeat CPU  0 instructions:  145000002 cycles:  116630795 heartbeat IPC: 0.94581 cumulative IPC: 0.91123 (Simulation time: 0 hr 4 min 39 sec) 
Heartbeat CPU  0 instructions:  146000000 cycles:  117687901 heartbeat IPC: 0.94598 cumulative IPC: 0.91196 (Simulation time: 0 hr 4 min 41 sec) 
Heartbeat CPU  0 instructions:  147000003 cycles:  118746765 heartbeat IPC: 0.94441 cumulative IPC: 0.91263 (Simulation time: 0 hr 4 min 43 sec) 
Heartbeat CPU  0 instructions:  148000000 cycles:  119860085 heartbeat IPC: 0.89821 cumulative IPC: 0.91232 (Simulation time: 0 hr 4 min 45 sec) 
Heartbeat CPU  0 instructions:  149000000 cycles:  121076624 heartbeat IPC: 0.82200 cumulative IPC: 0.91028 (Simulation time: 0 hr 4 min 47 sec) 
Heartbeat CPU  0 instructions:  150000001 cycles:  122336369 heartbeat IPC: 0.79381 cumulative IPC: 0.90762 (Simulation time: 0 hr 4 min 48 sec) 
Heartbeat CPU  0 instructions:  151000001 cycles:  123596032 heartbeat IPC: 0.79386 cumulative IPC: 0.90507 (Simulation time: 0 hr 4 min 50 sec) 
Heartbeat CPU  0 instructions:  152000000 cycles:  124800948 heartbeat IPC: 0.82993 cumulative IPC: 0.90350 (Simulation time: 0 hr 4 min 52 sec) 
Heartbeat CPU  0 instructions:  153000002 cycles:  126060794 heartbeat IPC: 0.79375 cumulative IPC: 0.90115 (Simulation time: 0 hr 4 min 54 sec) 
Heartbeat CPU  0 instructions:  154000003 cycles:  127289997 heartbeat IPC: 0.81354 cumulative IPC: 0.89936 (Simulation time: 0 hr 4 min 56 sec) 
Heartbeat CPU  0 instructions:  155000000 cycles:  128561248 heartbeat IPC: 0.78662 cumulative IPC: 0.89702 (Simulation time: 0 hr 4 min 57 sec) 
Heartbeat CPU  0 instructions:  156000000 cycles:  129801479 heartbeat IPC: 0.80630 cumulative IPC: 0.89522 (Simulation time: 0 hr 4 min 59 sec) 
Heartbeat CPU  0 instructions:  157000000 cycles:  131061911 heartbeat IPC: 0.79338 cumulative IPC: 0.89321 (Simulation time: 0 hr 5 min 1 sec) 
Heartbeat CPU  0 instructions:  158000001 cycles:  132286021 heartbeat IPC: 0.81692 cumulative IPC: 0.89177 (Simulation time: 0 hr 5 min 3 sec) 
Heartbeat CPU  0 instructions:  159000001 cycles:  133559754 heartbeat IPC: 0.78509 cumulative IPC: 0.88972 (Simulation time: 0 hr 5 min 5 sec) 
Heartbeat CPU  0 instructions:  160000000 cycles:  134784341 heartbeat IPC: 0.81660 cumulative IPC: 0.88840 (Simulation time: 0 hr 5 min 6 sec) 
Heartbeat CPU  0 instructions:  161000002 cycles:  136060889 heartbeat IPC: 0.78336 cumulative IPC: 0.88645 (Simulation time: 0 hr 5 min 8 sec) 
Heartbeat CPU  0 instructions:  162000003 cycles:  137293526 heartbeat IPC: 0.81127 cumulative IPC: 0.88513 (Simulation time: 0 hr 5 min 10 sec) 
Heartbeat CPU  0 instructions:  163000003 cycles:  138546145 heartbeat IPC: 0.79833 cumulative IPC: 0.88360 (Simulation time: 0 hr 5 min 12 sec) 
Heartbeat CPU  0 instructions:  164000000 cycles:  139807680 heartbeat IPC: 0.79268 cumulative IPC: 0.88202 (Simulation time: 0 hr 5 min 14 sec) 
Heartbeat CPU  0 instructions:  165000000 cycles:  141082373 heartbeat IPC: 0.78450 cumulative IPC: 0.88034 (Simulation time: 0 hr 5 min 16 sec) 
Heartbeat CPU  0 instructions:  166000001 cycles:  142314788 heartbeat IPC: 0.81142 cumulative IPC: 0.87921 (Simulation time: 0 hr 5 min 17 sec) 
Heartbeat CPU  0 instructions:  167000001 cycles:  143617756 heartbeat IPC: 0.76748 cumulative IPC: 0.87730 (Simulation time: 0 hr 5 min 19 sec) 
Heartbeat CPU  0 instructions:  168000000 cycles:  144835654 heartbeat IPC: 0.82109 cumulative IPC: 0.87642 (Simulation time: 0 hr 5 min 21 sec) 
Heartbeat CPU  0 instructions:  169000002 cycles:  146094228 heartbeat IPC: 0.79455 cumulative IPC: 0.87511 (Simulation time: 0 hr 5 min 23 sec) 
Heartbeat CPU  0 instructions:  170000003 cycles:  147334128 heartbeat IPC: 0.80652 cumulative IPC: 0.87405 (Simulation time: 0 hr 5 min 25 sec) 
Heartbeat CPU  0 instructions:  171000000 cycles:  148583094 heartbeat IPC: 0.80066 cumulative IPC: 0.87292 (Simulation time: 0 hr 5 min 26 sec) 
Heartbeat CPU  0 instructions:  172000000 cycles:  149799894 heartbeat IPC: 0.82183 cumulative IPC: 0.87217 (Simulation time: 0 hr 5 min 28 sec) 
Heartbeat CPU  0 instructions:  173000002 cycles:  151017762 heartbeat IPC: 0.82111 cumulative IPC: 0.87143 (Simulation time: 0 hr 5 min 30 sec) 
Heartbeat CPU  0 instructions:  174000001 cycles:  152285334 heartbeat IPC: 0.78891 cumulative IPC: 0.87020 (Simulation time: 0 hr 5 min 32 sec) 
Heartbeat CPU  0 instructions:  175000003 cycles:  153506440 heartbeat IPC: 0.81893 cumulative IPC: 0.86947 (Simulation time: 0 hr 5 min 34 sec) 
Heartbeat CPU  0 instructions:  176000000 cycles:  154759962 heartbeat IPC: 0.79775 cumulative IPC: 0.86844 (Simulation time: 0 hr 5 min 36 sec) 
Heartbeat CPU  0 instructions:  177000003 cycles:  155972987 heartbeat IPC: 0.82439 cumulative IPC: 0.86784 (Simulation time: 0 hr 5 min 37 sec) 
Heartbeat CPU  0 instructions:  178000003 cycles:  157235753 heartbeat IPC: 0.79191 cumulative IPC: 0.86678 (Simulation time: 0 hr 5 min 39 sec) 
Heartbeat CPU  0 instructions:  179000000 cycles:  158430135 heartbeat IPC: 0.83725 cumulative IPC: 0.86639 (Simulation time: 0 hr 5 min 41 sec) 
Heartbeat CPU  0 instructions:  180000000 cycles:  159742419 heartbeat IPC: 0.76203 cumulative IPC: 0.86491 (Simulation time: 0 hr 5 min 43 sec) 
Heartbeat CPU  0 instructions:  181000001 cycles:  160968618 heartbeat IPC: 0.81553 cumulative IPC: 0.86426 (Simulation time: 0 hr 5 min 45 sec) 
Heartbeat CPU  0 instructions:  182000001 cycles:  162250418 heartbeat IPC: 0.78015 cumulative IPC: 0.86313 (Simulation time: 0 hr 5 min 46 sec) 
Heartbeat CPU  0 instructions:  183000002 cycles:  163479819 heartbeat IPC: 0.81341 cumulative IPC: 0.86249 (Simulation time: 0 hr 5 min 48 sec) 
Heartbeat CPU  0 instructions:  184000000 cycles:  164763824 heartbeat IPC: 0.77881 cumulative IPC: 0.86139 (Simulation time: 0 hr 5 min 50 sec) 
Heartbeat CPU  0 instructions:  185000003 cycles:  165989285 heartbeat IPC: 0.81602 cumulative IPC: 0.86083 (Simulation time: 0 hr 5 min 52 sec) 
Heartbeat CPU  0 instructions:  186000003 cycles:  167271375 heartbeat IPC: 0.77998 cumulative IPC: 0.85979 (Simulation time: 0 hr 5 min 54 sec) 
Heartbeat CPU  0 instructions:  187000000 cycles:  168513601 heartbeat IPC: 0.80500 cumulative IPC: 0.85912 (Simulation time: 0 hr 5 min 56 sec) 
Heartbeat CPU  0 instructions:  188000000 cycles:  169760562 heartbeat IPC: 0.80195 cumulative IPC: 0.85842 (Simulation time: 0 hr 5 min 57 sec) 
Heartbeat CPU  0 instructions:  189000001 cycles:  170995924 heartbeat IPC: 0.80948 cumulative IPC: 0.85784 (Simulation time: 0 hr 5 min 59 sec) 
Heartbeat CPU  0 instructions:  190000001 cycles:  172284330 heartbeat IPC: 0.77615 cumulative IPC: 0.85684 (Simulation time: 0 hr 6 min 1 sec) 
Heartbeat CPU  0 instructions:  191000002 cycles:  173530973 heartbeat IPC: 0.80216 cumulative IPC: 0.85620 (Simulation time: 0 hr 6 min 3 sec) 
Heartbeat CPU  0 instructions:  192000000 cycles:  174780168 heartbeat IPC: 0.80051 cumulative IPC: 0.85555 (Simulation time: 0 hr 6 min 5 sec) 
Heartbeat CPU  0 instructions:  193000003 cycles:  175998232 heartbeat IPC: 0.82098 cumulative IPC: 0.85516 (Simulation time: 0 hr 6 min 6 sec) 
Heartbeat CPU  0 instructions:  194000003 cycles:  177266902 heartbeat IPC: 0.78823 cumulative IPC: 0.85439 (Simulation time: 0 hr 6 min 8 sec) 
Heartbeat CPU  0 instructions:  195000001 cycles:  178479577 heartbeat IPC: 0.82462 cumulative IPC: 0.85407 (Simulation time: 0 hr 6 min 10 sec) 
Heartbeat CPU  0 instructions:  196000000 cycles:  179743960 heartbeat IPC: 0.79090 cumulative IPC: 0.85336 (Simulation time: 0 hr 6 min 12 sec) 
Heartbeat CPU  0 instructions:  197000001 cycles:  180975610 heartbeat IPC: 0.81192 cumulative IPC: 0.85291 (Simulation time: 0 hr 6 min 14 sec) 
Heartbeat CPU  0 instructions:  198000002 cycles:  182228736 heartbeat IPC: 0.79801 cumulative IPC: 0.85231 (Simulation time: 0 hr 6 min 16 sec) 
Heartbeat CPU  0 instructions:  199000002 cycles:  183443587 heartbeat IPC: 0.82315 cumulative IPC: 0.85200 (Simulation time: 0 hr 6 min 17 sec) 
Heartbeat CPU  0 instructions:  200000000 cycles:  184704147 heartbeat IPC: 0.79330 cumulative IPC: 0.85137 (Simulation time: 0 hr 6 min 19 sec) 
Finished CPU 0 instructions: 100000001 cycles: 117457123 cumulative IPC: 0.85137 (Simulation time: 0 hr 6 min 19 sec) 

ChampSim completed all CPUs

[ROI Statistics]
Core_0_instructions 100000001
Core_0_cycles 117457123
Core_0_IPC 0.85137

Core_0_branch_prediction_accuracy 99.52414
Core_0_branch_MPKI 0.08716
Core_0_average_ROB_occupancy_at_mispredict 253.77249

Core_0_L1D_total_access 56849737
Core_0_L1D_total_hit 53825384
Core_0_L1D_total_miss 3024353
Core_0_L1D_loads 27229952
Core_0_L1D_load_hit 26339252
Core_0_L1D_load_miss 890700
Core_0_L1D_RFOs 6122320
Core_0_L1D_RFO_hit 6122299
Core_0_L1D_RFO_miss 21
Core_0_L1D_prefetches 23497465
Core_0_L1D_prefetch_hit 21363833
Core_0_L1D_prefetch_miss 2133632
Core_0_L1D_writebacks 0
Core_0_L1D_writeback_hit 0
Core_0_L1D_writeback_miss 0
Core_0_L1D_prefetch_requested 80524214
Core_0_L1D_prefetch_issued 70028134
Core_0_L1D_prefetch_useful 1506658
Core_0_L1D_prefetch_useless 3514126
Core_0_L1D_prefetch_late 214498
Core_0_L1D_average_miss_latency 9807850.22300

Core_0_L1I_total_access 21049659
Core_0_L1I_total_hit 21049582
Core_0_L1I_total_miss 77
Core_0_L1I_loads 21049659
Core_0_L1I_load_hit 21049582
Core_0_L1I_load_miss 77
Core_0_L1I_RFOs 0
Core_0_L1I_RFO_hit 0
Core_0_L1I_RFO_miss 0
Core_0_L1I_prefetches 0
Core_0_L1I_prefetch_hit 0
Core_0_L1I_prefetch_miss 0
Core_0_L1I_writebacks 0
Core_0_L1I_writeback_hit 0
Core_0_L1I_writeback_miss 0
Core_0_L1I_prefetch_requested 0
Core_0_L1I_prefetch_issued 0
Core_0_L1I_prefetch_useful 0
Core_0_L1I_prefetch_useless 0
Core_0_L1I_prefetch_late 0
Core_0_L1I_average_miss_latency 233.62338

Core_0_L2C_total_access 6077182
Core_0_L2C_total_hit 3988390
Core_0_L2C_total_miss 2088792
Core_0_L2C_loads 676282
Core_0_L2C_load_hit 571829
Core_0_L2C_load_miss 104453
Core_0_L2C_RFOs 21
Core_0_L2C_RFO_hit 0
Core_0_L2C_RFO_miss 21
Core_0_L2C_prefetches 4721600
Core_0_L2C_prefetch_hit 2737404
Core_0_L2C_prefetch_miss 1984196
Core_0_L2C_writebacks 679279
Core_0_L2C_writeback_hit 679157
Core_0_L2C_writeback_miss 122
Core_0_L2C_prefetch_requested 4837342
Core_0_L2C_prefetch_issued 4837206
Core_0_L2C_prefetch_useful 380420
Core_0_L2C_prefetch_useless 2310387
Core_0_L2C_prefetch_late 12530
Core_0_L2C_average_miss_latency 399.98074

Core_0_LLC_total_access 2877287
Core_0_LLC_total_hit 890400
Core_0_LLC_total_miss 1986887
Core_0_LLC_loads 91923
Core_0_LLC_load_hit 39904
Core_0_LLC_load_miss 52019
Core_0_LLC_RFOs 21
Core_0_LLC_RFO_hit 0
Core_0_LLC_RFO_miss 21
Core_0_LLC_prefetches 2110155
Core_0_LLC_prefetch_hit 185538
Core_0_LLC_prefetch_miss 1924617
Core_0_LLC_writebacks 675188
Core_0_LLC_writeback_hit 664958
Core_0_LLC_writeback_miss 10230
Core_0_LLC_prefetch_requested 0
Core_0_LLC_prefetch_issued 0
Core_0_LLC_prefetch_useful 50442
Core_0_LLC_prefetch_useless 2389589
Core_0_LLC_prefetch_late 574
Core_0_LLC_average_miss_latency 426.06135

Core_0_major_page_fault 0
Core_0_minor_page_fault 80857

CPU 0 L1D next line prefetcher final stats
CPU 0 L2C PC-based stride prefetcher final stats
Channel_0_RQ_row_buffer_hit 488965
Channel_0_RQ_row_buffer_miss 1487692
Channel_0_WQ_row_buffer_hit 99195
Channel_0_WQ_row_buffer_miss 567114
Channel_0_WQ_full 0
Channel_0_dbus_congested 1420866

avg_congested_cycle 10
