*************************************************
   ChampSim Multicore Out-of-Order Simulator
   Last compiled: Dec 25 2023 15:37:53
*************************************************

trace_0 ./test_trace/459.GemsFDTD-1320B.champsimtrace.xz
Initialize SHIP state
LLC Next Line Prefetcher
warmup_instructions 100000000
simulation_instructions 100000000
champsim_seed 264

num_cpus 1
cpu_freq 4000
dram_io_freq 2400
page_size 4096
block_size 64
max_read_per_cycle 8
max_fill_per_cycle 1
dram_channels 1
dram_ranks 1
dram_banks 8
dram_rows 65536
dram_columns 128
dram_row_size 8
dram_size 4096
dram_pages 1048576

fetch_width 6
decode_width 6
exec_width 4
lq_width 2
sq_width 2
retire_width 4
scheduler_size 128
branch_mispredict_penalty 20
rob_size 256
lq_size 72
sq_size 56
num_instr_destinations_sparc 4
num_instr_destinations 2
num_instr_sources 4

itlb_set 16
itlb_way 8
itlb_rq_size 16
itlb_wq_size 16
itlb_pq_size 0
itlb_mshr_size 8
itlb_latency 1

dtlb_set 16
dtlb_way 4
dtlb_rq_size 16
dtlb_wq_size 16
dtlb_pq_size 0
dtlb_mshr_size 8
dtlb_latency 1

stlb_set 128
stlb_way 12
stlb_rq_size 32
stlb_wq_size 32
stlb_pq_size 0
stlb_mshr_size 16
stlb_latency 8

l1i_size 32
l1i_set 64
l1i_way 8
l1i_rq_size 64
l1i_wq_size 64
l1i_pq_size 8
l1i_mshr_size 8
l1i_latency 1

l1d_size 32
l1d_set 64
l1d_way 8
l1d_rq_size 64
l1d_wq_size 64
l1d_pq_size 8
l1d_mshr_size 16
l1d_latency 4

l2c_size 512
l2c_set 1024
l2c_way 8
l2c_rq_size 32
l2c_wq_size 32
l2c_pq_size 16
l2c_mshr_size 32
l2c_latency 10

llc_size 2048
llc_set 2048
llc_way 16
llc_rq_size 32
llc_wq_size 32
llc_pq_size 32
llc_mshr_size 64
llc_latency 20

dram_channel_width 8
dram_wq_size 64
dram_rq_size 64
tRP 15
tRCD 15
tCAS 12.5
dram_dbus_turn_around_time 30
dram_write_high_wm 56
dram_write_low_wm 48
min_dram_writes_per_switch 16
dram_mtps 2400
dram_dbus_return_time 13


Heartbeat CPU  0 instructions:    1000000 cycles:     673446 heartbeat IPC: 1.48490 cumulative IPC: 1.48490 (Simulation time: 0 hr 0 min 2 sec) 
Heartbeat CPU  0 instructions:    2000003 cycles:    1346229 heartbeat IPC: 1.48637 cumulative IPC: 1.48563 (Simulation time: 0 hr 0 min 4 sec) 
Heartbeat CPU  0 instructions:    3000002 cycles:    2018953 heartbeat IPC: 1.48649 cumulative IPC: 1.48592 (Simulation time: 0 hr 0 min 5 sec) 
Heartbeat CPU  0 instructions:    4000000 cycles:    2691777 heartbeat IPC: 1.48627 cumulative IPC: 1.48601 (Simulation time: 0 hr 0 min 7 sec) 
Heartbeat CPU  0 instructions:    5000001 cycles:    3364720 heartbeat IPC: 1.48601 cumulative IPC: 1.48601 (Simulation time: 0 hr 0 min 9 sec) 
Heartbeat CPU  0 instructions:    6000001 cycles:    4037055 heartbeat IPC: 1.48735 cumulative IPC: 1.48623 (Simulation time: 0 hr 0 min 11 sec) 
Heartbeat CPU  0 instructions:    7000001 cycles:    4709544 heartbeat IPC: 1.48701 cumulative IPC: 1.48634 (Simulation time: 0 hr 0 min 12 sec) 
Heartbeat CPU  0 instructions:    8000000 cycles:    5382183 heartbeat IPC: 1.48668 cumulative IPC: 1.48639 (Simulation time: 0 hr 0 min 14 sec) 
Heartbeat CPU  0 instructions:    9000003 cycles:    6054847 heartbeat IPC: 1.48663 cumulative IPC: 1.48641 (Simulation time: 0 hr 0 min 16 sec) 
Heartbeat CPU  0 instructions:   10000003 cycles:    6727565 heartbeat IPC: 1.48651 cumulative IPC: 1.48642 (Simulation time: 0 hr 0 min 18 sec) 
Heartbeat CPU  0 instructions:   11000003 cycles:    7400246 heartbeat IPC: 1.48659 cumulative IPC: 1.48644 (Simulation time: 0 hr 0 min 19 sec) 
Heartbeat CPU  0 instructions:   12000000 cycles:    8072795 heartbeat IPC: 1.48688 cumulative IPC: 1.48647 (Simulation time: 0 hr 0 min 21 sec) 
Heartbeat CPU  0 instructions:   13000000 cycles:    8750480 heartbeat IPC: 1.47561 cumulative IPC: 1.48563 (Simulation time: 0 hr 0 min 23 sec) 
Heartbeat CPU  0 instructions:   14000002 cycles:    9429562 heartbeat IPC: 1.47258 cumulative IPC: 1.48469 (Simulation time: 0 hr 0 min 25 sec) 
Heartbeat CPU  0 instructions:   15000000 cycles:   10108697 heartbeat IPC: 1.47246 cumulative IPC: 1.48387 (Simulation time: 0 hr 0 min 26 sec) 
Heartbeat CPU  0 instructions:   16000000 cycles:   10787801 heartbeat IPC: 1.47253 cumulative IPC: 1.48316 (Simulation time: 0 hr 0 min 28 sec) 
Heartbeat CPU  0 instructions:   17000002 cycles:   11467013 heartbeat IPC: 1.47230 cumulative IPC: 1.48251 (Simulation time: 0 hr 0 min 30 sec) 
Heartbeat CPU  0 instructions:   18000003 cycles:   12146103 heartbeat IPC: 1.47256 cumulative IPC: 1.48196 (Simulation time: 0 hr 0 min 31 sec) 
Heartbeat CPU  0 instructions:   19000003 cycles:   12825178 heartbeat IPC: 1.47259 cumulative IPC: 1.48146 (Simulation time: 0 hr 0 min 33 sec) 
Heartbeat CPU  0 instructions:   20000000 cycles:   13504368 heartbeat IPC: 1.47234 cumulative IPC: 1.48100 (Simulation time: 0 hr 0 min 35 sec) 
Heartbeat CPU  0 instructions:   21000002 cycles:   14183554 heartbeat IPC: 1.47235 cumulative IPC: 1.48059 (Simulation time: 0 hr 0 min 37 sec) 
Heartbeat CPU  0 instructions:   22000000 cycles:   14862720 heartbeat IPC: 1.47239 cumulative IPC: 1.48021 (Simulation time: 0 hr 0 min 38 sec) 
Heartbeat CPU  0 instructions:   23000000 cycles:   15541828 heartbeat IPC: 1.47252 cumulative IPC: 1.47988 (Simulation time: 0 hr 0 min 40 sec) 
Heartbeat CPU  0 instructions:   24000000 cycles:   16220979 heartbeat IPC: 1.47243 cumulative IPC: 1.47957 (Simulation time: 0 hr 0 min 42 sec) 
Heartbeat CPU  0 instructions:   25000001 cycles:   16900209 heartbeat IPC: 1.47226 cumulative IPC: 1.47927 (Simulation time: 0 hr 0 min 43 sec) 
Heartbeat CPU  0 instructions:   26000001 cycles:   17579390 heartbeat IPC: 1.47236 cumulative IPC: 1.47900 (Simulation time: 0 hr 0 min 45 sec) 
Heartbeat CPU  0 instructions:   27000001 cycles:   18258525 heartbeat IPC: 1.47246 cumulative IPC: 1.47876 (Simulation time: 0 hr 0 min 47 sec) 
Heartbeat CPU  0 instructions:   28000000 cycles:   18936909 heartbeat IPC: 1.47409 cumulative IPC: 1.47859 (Simulation time: 0 hr 0 min 49 sec) 
Heartbeat CPU  0 instructions:   29000002 cycles:   19613568 heartbeat IPC: 1.47785 cumulative IPC: 1.47857 (Simulation time: 0 hr 0 min 50 sec) 
Heartbeat CPU  0 instructions:   30000000 cycles:   20290223 heartbeat IPC: 1.47786 cumulative IPC: 1.47854 (Simulation time: 0 hr 0 min 52 sec) 
Heartbeat CPU  0 instructions:   31000000 cycles:   20966788 heartbeat IPC: 1.47805 cumulative IPC: 1.47853 (Simulation time: 0 hr 0 min 54 sec) 
Heartbeat CPU  0 instructions:   32000000 cycles:   21643340 heartbeat IPC: 1.47808 cumulative IPC: 1.47851 (Simulation time: 0 hr 0 min 55 sec) 
Heartbeat CPU  0 instructions:   33000002 cycles:   22320091 heartbeat IPC: 1.47765 cumulative IPC: 1.47849 (Simulation time: 0 hr 0 min 57 sec) 
Heartbeat CPU  0 instructions:   34000000 cycles:   22996729 heartbeat IPC: 1.47789 cumulative IPC: 1.47847 (Simulation time: 0 hr 0 min 59 sec) 
Heartbeat CPU  0 instructions:   35000002 cycles:   23673358 heartbeat IPC: 1.47792 cumulative IPC: 1.47846 (Simulation time: 0 hr 1 min 1 sec) 
Heartbeat CPU  0 instructions:   36000000 cycles:   24349953 heartbeat IPC: 1.47799 cumulative IPC: 1.47844 (Simulation time: 0 hr 1 min 2 sec) 
Heartbeat CPU  0 instructions:   37000000 cycles:   25026724 heartbeat IPC: 1.47760 cumulative IPC: 1.47842 (Simulation time: 0 hr 1 min 4 sec) 
Heartbeat CPU  0 instructions:   38000000 cycles:   25703318 heartbeat IPC: 1.47799 cumulative IPC: 1.47841 (Simulation time: 0 hr 1 min 6 sec) 
Heartbeat CPU  0 instructions:   39000002 cycles:   26379998 heartbeat IPC: 1.47781 cumulative IPC: 1.47839 (Simulation time: 0 hr 1 min 7 sec) 
Heartbeat CPU  0 instructions:   40000000 cycles:   27056792 heartbeat IPC: 1.47755 cumulative IPC: 1.47837 (Simulation time: 0 hr 1 min 9 sec) 
Heartbeat CPU  0 instructions:   41000000 cycles:   27733640 heartbeat IPC: 1.47744 cumulative IPC: 1.47835 (Simulation time: 0 hr 1 min 11 sec) 
Heartbeat CPU  0 instructions:   42000002 cycles:   28410242 heartbeat IPC: 1.47798 cumulative IPC: 1.47834 (Simulation time: 0 hr 1 min 13 sec) 
Heartbeat CPU  0 instructions:   43000002 cycles:   29086823 heartbeat IPC: 1.47802 cumulative IPC: 1.47833 (Simulation time: 0 hr 1 min 14 sec) 
Heartbeat CPU  0 instructions:   44000000 cycles:   29753141 heartbeat IPC: 1.50078 cumulative IPC: 1.47884 (Simulation time: 0 hr 1 min 16 sec) 
Heartbeat CPU  0 instructions:   45000003 cycles:   30419385 heartbeat IPC: 1.50096 cumulative IPC: 1.47932 (Simulation time: 0 hr 1 min 18 sec) 
Heartbeat CPU  0 instructions:   46000001 cycles:   31085342 heartbeat IPC: 1.50160 cumulative IPC: 1.47980 (Simulation time: 0 hr 1 min 20 sec) 
Heartbeat CPU  0 instructions:   47000000 cycles:   31751347 heartbeat IPC: 1.50149 cumulative IPC: 1.48025 (Simulation time: 0 hr 1 min 21 sec) 
Heartbeat CPU  0 instructions:   48000000 cycles:   32417141 heartbeat IPC: 1.50197 cumulative IPC: 1.48070 (Simulation time: 0 hr 1 min 23 sec) 
Heartbeat CPU  0 instructions:   49000000 cycles:   33083002 heartbeat IPC: 1.50181 cumulative IPC: 1.48112 (Simulation time: 0 hr 1 min 25 sec) 
Heartbeat CPU  0 instructions:   50000003 cycles:   33749123 heartbeat IPC: 1.50123 cumulative IPC: 1.48152 (Simulation time: 0 hr 1 min 26 sec) 
Heartbeat CPU  0 instructions:   51000003 cycles:   34415098 heartbeat IPC: 1.50156 cumulative IPC: 1.48191 (Simulation time: 0 hr 1 min 28 sec) 
Heartbeat CPU  0 instructions:   52000000 cycles:   35081177 heartbeat IPC: 1.50132 cumulative IPC: 1.48228 (Simulation time: 0 hr 1 min 30 sec) 
Heartbeat CPU  0 instructions:   53000003 cycles:   35747163 heartbeat IPC: 1.50154 cumulative IPC: 1.48264 (Simulation time: 0 hr 1 min 32 sec) 
Heartbeat CPU  0 instructions:   54000000 cycles:   36412907 heartbeat IPC: 1.50207 cumulative IPC: 1.48299 (Simulation time: 0 hr 1 min 33 sec) 
Heartbeat CPU  0 instructions:   55000000 cycles:   37078936 heartbeat IPC: 1.50144 cumulative IPC: 1.48332 (Simulation time: 0 hr 1 min 35 sec) 
Heartbeat CPU  0 instructions:   56000000 cycles:   37740632 heartbeat IPC: 1.51127 cumulative IPC: 1.48381 (Simulation time: 0 hr 1 min 37 sec) 
Heartbeat CPU  0 instructions:   57000003 cycles:   38401650 heartbeat IPC: 1.51282 cumulative IPC: 1.48431 (Simulation time: 0 hr 1 min 39 sec) 
Heartbeat CPU  0 instructions:   58000000 cycles:   39062826 heartbeat IPC: 1.51245 cumulative IPC: 1.48479 (Simulation time: 0 hr 1 min 40 sec) 
Heartbeat CPU  0 instructions:   59000000 cycles:   39723849 heartbeat IPC: 1.51281 cumulative IPC: 1.48525 (Simulation time: 0 hr 1 min 42 sec) 
Heartbeat CPU  0 instructions:   60000000 cycles:   40384791 heartbeat IPC: 1.51299 cumulative IPC: 1.48571 (Simulation time: 0 hr 1 min 44 sec) 
Heartbeat CPU  0 instructions:   61000001 cycles:   41046394 heartbeat IPC: 1.51148 cumulative IPC: 1.48612 (Simulation time: 0 hr 1 min 46 sec) 
Heartbeat CPU  0 instructions:   62000000 cycles:   41707528 heartbeat IPC: 1.51255 cumulative IPC: 1.48654 (Simulation time: 0 hr 1 min 47 sec) 
Heartbeat CPU  0 instructions:   63000001 cycles:   42368704 heartbeat IPC: 1.51246 cumulative IPC: 1.48695 (Simulation time: 0 hr 1 min 49 sec) 
Heartbeat CPU  0 instructions:   64000000 cycles:   43029792 heartbeat IPC: 1.51266 cumulative IPC: 1.48734 (Simulation time: 0 hr 1 min 51 sec) 
Heartbeat CPU  0 instructions:   65000003 cycles:   43690961 heartbeat IPC: 1.51248 cumulative IPC: 1.48772 (Simulation time: 0 hr 1 min 53 sec) 
Heartbeat CPU  0 instructions:   66000000 cycles:   44352027 heartbeat IPC: 1.51270 cumulative IPC: 1.48809 (Simulation time: 0 hr 1 min 54 sec) 
Heartbeat CPU  0 instructions:   67000000 cycles:   45013341 heartbeat IPC: 1.51214 cumulative IPC: 1.48845 (Simulation time: 0 hr 1 min 56 sec) 
Heartbeat CPU  0 instructions:   68000000 cycles:   45683492 heartbeat IPC: 1.49220 cumulative IPC: 1.48850 (Simulation time: 0 hr 1 min 58 sec) 
Heartbeat CPU  0 instructions:   69000002 cycles:   46354155 heartbeat IPC: 1.49106 cumulative IPC: 1.48854 (Simulation time: 0 hr 1 min 59 sec) 
Heartbeat CPU  0 instructions:   70000001 cycles:   47025156 heartbeat IPC: 1.49031 cumulative IPC: 1.48856 (Simulation time: 0 hr 2 min 1 sec) 
Heartbeat CPU  0 instructions:   71000002 cycles:   47695899 heartbeat IPC: 1.49089 cumulative IPC: 1.48860 (Simulation time: 0 hr 2 min 3 sec) 
Heartbeat CPU  0 instructions:   72000000 cycles:   48366866 heartbeat IPC: 1.49038 cumulative IPC: 1.48862 (Simulation time: 0 hr 2 min 5 sec) 
Heartbeat CPU  0 instructions:   73000000 cycles:   49037759 heartbeat IPC: 1.49055 cumulative IPC: 1.48865 (Simulation time: 0 hr 2 min 6 sec) 
Heartbeat CPU  0 instructions:   74000000 cycles:   49708480 heartbeat IPC: 1.49093 cumulative IPC: 1.48868 (Simulation time: 0 hr 2 min 8 sec) 
Heartbeat CPU  0 instructions:   75000001 cycles:   50379575 heartbeat IPC: 1.49010 cumulative IPC: 1.48870 (Simulation time: 0 hr 2 min 10 sec) 
Heartbeat CPU  0 instructions:   76000000 cycles:   51050023 heartbeat IPC: 1.49154 cumulative IPC: 1.48874 (Simulation time: 0 hr 2 min 12 sec) 
Heartbeat CPU  0 instructions:   77000000 cycles:   51721036 heartbeat IPC: 1.49028 cumulative IPC: 1.48876 (Simulation time: 0 hr 2 min 13 sec) 
Heartbeat CPU  0 instructions:   78000003 cycles:   52391901 heartbeat IPC: 1.49062 cumulative IPC: 1.48878 (Simulation time: 0 hr 2 min 15 sec) 
Heartbeat CPU  0 instructions:   79000002 cycles:   53062478 heartbeat IPC: 1.49125 cumulative IPC: 1.48881 (Simulation time: 0 hr 2 min 17 sec) 
Heartbeat CPU  0 instructions:   80000000 cycles:   53735342 heartbeat IPC: 1.48618 cumulative IPC: 1.48878 (Simulation time: 0 hr 2 min 18 sec) 
Heartbeat CPU  0 instructions:   81000003 cycles:   54408838 heartbeat IPC: 1.48479 cumulative IPC: 1.48873 (Simulation time: 0 hr 2 min 20 sec) 
Heartbeat CPU  0 instructions:   82000001 cycles:   55081910 heartbeat IPC: 1.48572 cumulative IPC: 1.48869 (Simulation time: 0 hr 2 min 22 sec) 
Heartbeat CPU  0 instructions:   83000002 cycles:   55755181 heartbeat IPC: 1.48529 cumulative IPC: 1.48865 (Simulation time: 0 hr 2 min 24 sec) 
Heartbeat CPU  0 instructions:   84000000 cycles:   56427957 heartbeat IPC: 1.48638 cumulative IPC: 1.48862 (Simulation time: 0 hr 2 min 25 sec) 
Heartbeat CPU  0 instructions:   85000000 cycles:   57101251 heartbeat IPC: 1.48524 cumulative IPC: 1.48858 (Simulation time: 0 hr 2 min 27 sec) 
Heartbeat CPU  0 instructions:   86000001 cycles:   57774387 heartbeat IPC: 1.48559 cumulative IPC: 1.48855 (Simulation time: 0 hr 2 min 29 sec) 
Heartbeat CPU  0 instructions:   87000000 cycles:   58447579 heartbeat IPC: 1.48546 cumulative IPC: 1.48851 (Simulation time: 0 hr 2 min 31 sec) 
Heartbeat CPU  0 instructions:   88000000 cycles:   59120825 heartbeat IPC: 1.48534 cumulative IPC: 1.48848 (Simulation time: 0 hr 2 min 32 sec) 
Heartbeat CPU  0 instructions:   89000002 cycles:   59793950 heartbeat IPC: 1.48561 cumulative IPC: 1.48844 (Simulation time: 0 hr 2 min 34 sec) 
Heartbeat CPU  0 instructions:   90000001 cycles:   60466913 heartbeat IPC: 1.48596 cumulative IPC: 1.48842 (Simulation time: 0 hr 2 min 36 sec) 
Heartbeat CPU  0 instructions:   91000000 cycles:   61139964 heartbeat IPC: 1.48577 cumulative IPC: 1.48839 (Simulation time: 0 hr 2 min 37 sec) 
Heartbeat CPU  0 instructions:   92000000 cycles:   61816339 heartbeat IPC: 1.47847 cumulative IPC: 1.48828 (Simulation time: 0 hr 2 min 39 sec) 
Heartbeat CPU  0 instructions:   93000001 cycles:   62495588 heartbeat IPC: 1.47222 cumulative IPC: 1.48811 (Simulation time: 0 hr 2 min 41 sec) 
Heartbeat CPU  0 instructions:   94000001 cycles:   63174569 heartbeat IPC: 1.47280 cumulative IPC: 1.48794 (Simulation time: 0 hr 2 min 43 sec) 
Heartbeat CPU  0 instructions:   95000001 cycles:   63853648 heartbeat IPC: 1.47258 cumulative IPC: 1.48778 (Simulation time: 0 hr 2 min 44 sec) 
Heartbeat CPU  0 instructions:   96000000 cycles:   64532702 heartbeat IPC: 1.47264 cumulative IPC: 1.48762 (Simulation time: 0 hr 2 min 46 sec) 
Heartbeat CPU  0 instructions:   97000000 cycles:   65211757 heartbeat IPC: 1.47263 cumulative IPC: 1.48746 (Simulation time: 0 hr 2 min 48 sec) 
Heartbeat CPU  0 instructions:   98000000 cycles:   65890881 heartbeat IPC: 1.47249 cumulative IPC: 1.48731 (Simulation time: 0 hr 2 min 49 sec) 
Heartbeat CPU  0 instructions:   99000000 cycles:   66569982 heartbeat IPC: 1.47254 cumulative IPC: 1.48716 (Simulation time: 0 hr 2 min 51 sec) 
Heartbeat CPU  0 instructions:  100000000 cycles:   67249078 heartbeat IPC: 1.47255 cumulative IPC: 1.48701 (Simulation time: 0 hr 2 min 53 sec) 

Warmup complete CPU  0 instructions:  100000001 cycles:   67249079 (Simulation time: 0 hr 2 min 53 sec) 

Heartbeat CPU  0 instructions:  101000000 cycles:   68436379 heartbeat IPC: 0.84225 cumulative IPC: 0.84225 (Simulation time: 0 hr 2 min 55 sec) 
Heartbeat CPU  0 instructions:  102000002 cycles:   69628920 heartbeat IPC: 0.83855 cumulative IPC: 0.84039 (Simulation time: 0 hr 2 min 57 sec) 
Heartbeat CPU  0 instructions:  103000001 cycles:   70820493 heartbeat IPC: 0.83923 cumulative IPC: 0.84000 (Simulation time: 0 hr 2 min 59 sec) 
Heartbeat CPU  0 instructions:  104000000 cycles:   72010168 heartbeat IPC: 0.84056 cumulative IPC: 0.84014 (Simulation time: 0 hr 3 min 1 sec) 
Heartbeat CPU  0 instructions:  105000001 cycles:   73206789 heartbeat IPC: 0.83569 cumulative IPC: 0.83925 (Simulation time: 0 hr 3 min 3 sec) 
Heartbeat CPU  0 instructions:  106000001 cycles:   74392273 heartbeat IPC: 0.84354 cumulative IPC: 0.83996 (Simulation time: 0 hr 3 min 4 sec) 
Heartbeat CPU  0 instructions:  107000002 cycles:   75785414 heartbeat IPC: 0.71780 cumulative IPC: 0.82002 (Simulation time: 0 hr 3 min 6 sec) 
Heartbeat CPU  0 instructions:  108000000 cycles:   77116267 heartbeat IPC: 0.75140 cumulative IPC: 0.81077 (Simulation time: 0 hr 3 min 8 sec) 
Heartbeat CPU  0 instructions:  109000000 cycles:   78288476 heartbeat IPC: 0.85309 cumulative IPC: 0.81526 (Simulation time: 0 hr 3 min 10 sec) 
Heartbeat CPU  0 instructions:  110000002 cycles:   79441821 heartbeat IPC: 0.86704 cumulative IPC: 0.82016 (Simulation time: 0 hr 3 min 12 sec) 
Heartbeat CPU  0 instructions:  111000000 cycles:   80599079 heartbeat IPC: 0.86411 cumulative IPC: 0.82397 (Simulation time: 0 hr 3 min 14 sec) 
Heartbeat CPU  0 instructions:  112000000 cycles:   81763791 heartbeat IPC: 0.85858 cumulative IPC: 0.82675 (Simulation time: 0 hr 3 min 16 sec) 
Heartbeat CPU  0 instructions:  113000000 cycles:   82925475 heartbeat IPC: 0.86082 cumulative IPC: 0.82927 (Simulation time: 0 hr 3 min 18 sec) 
Heartbeat CPU  0 instructions:  114000002 cycles:   84090172 heartbeat IPC: 0.85859 cumulative IPC: 0.83130 (Simulation time: 0 hr 3 min 20 sec) 
Heartbeat CPU  0 instructions:  115000002 cycles:   85259105 heartbeat IPC: 0.85548 cumulative IPC: 0.83287 (Simulation time: 0 hr 3 min 22 sec) 
Heartbeat CPU  0 instructions:  116000000 cycles:   86432848 heartbeat IPC: 0.85197 cumulative IPC: 0.83404 (Simulation time: 0 hr 3 min 24 sec) 
Heartbeat CPU  0 instructions:  117000002 cycles:   87604786 heartbeat IPC: 0.85329 cumulative IPC: 0.83515 (Simulation time: 0 hr 3 min 26 sec) 
Heartbeat CPU  0 instructions:  118000000 cycles:   88774678 heartbeat IPC: 0.85478 cumulative IPC: 0.83621 (Simulation time: 0 hr 3 min 28 sec) 
Heartbeat CPU  0 instructions:  119000000 cycles:   89950211 heartbeat IPC: 0.85068 cumulative IPC: 0.83696 (Simulation time: 0 hr 3 min 30 sec) 
Heartbeat CPU  0 instructions:  120000000 cycles:   91124465 heartbeat IPC: 0.85160 cumulative IPC: 0.83768 (Simulation time: 0 hr 3 min 31 sec) 
Heartbeat CPU  0 instructions:  121000002 cycles:   92294270 heartbeat IPC: 0.85485 cumulative IPC: 0.83848 (Simulation time: 0 hr 3 min 33 sec) 
Heartbeat CPU  0 instructions:  122000002 cycles:   93456703 heartbeat IPC: 0.86026 cumulative IPC: 0.83945 (Simulation time: 0 hr 3 min 35 sec) 
Heartbeat CPU  0 instructions:  123000003 cycles:   94472406 heartbeat IPC: 0.98454 cumulative IPC: 0.84486 (Simulation time: 0 hr 3 min 37 sec) 
Heartbeat CPU  0 instructions:  124000000 cycles:   95590938 heartbeat IPC: 0.89403 cumulative IPC: 0.84680 (Simulation time: 0 hr 3 min 39 sec) 
Heartbeat CPU  0 instructions:  125000000 cycles:   96910543 heartbeat IPC: 0.75780 cumulative IPC: 0.84284 (Simulation time: 0 hr 3 min 40 sec) 
Heartbeat CPU  0 instructions:  126000001 cycles:   98289487 heartbeat IPC: 0.72519 cumulative IPC: 0.83762 (Simulation time: 0 hr 3 min 42 sec) 
Heartbeat CPU  0 instructions:  127000001 cycles:   99622239 heartbeat IPC: 0.75033 cumulative IPC: 0.83402 (Simulation time: 0 hr 3 min 44 sec) 
Heartbeat CPU  0 instructions:  128000000 cycles:  100975768 heartbeat IPC: 0.73881 cumulative IPC: 0.83020 (Simulation time: 0 hr 3 min 46 sec) 
Heartbeat CPU  0 instructions:  129000003 cycles:  102297387 heartbeat IPC: 0.75665 cumulative IPC: 0.82743 (Simulation time: 0 hr 3 min 47 sec) 
Heartbeat CPU  0 instructions:  130000002 cycles:  103641574 heartbeat IPC: 0.74394 cumulative IPC: 0.82435 (Simulation time: 0 hr 3 min 49 sec) 
Heartbeat CPU  0 instructions:  131000000 cycles:  104967713 heartbeat IPC: 0.75407 cumulative IPC: 0.82187 (Simulation time: 0 hr 3 min 51 sec) 
Heartbeat CPU  0 instructions:  132000000 cycles:  106305684 heartbeat IPC: 0.74740 cumulative IPC: 0.81932 (Simulation time: 0 hr 3 min 53 sec) 
Heartbeat CPU  0 instructions:  133000000 cycles:  107659555 heartbeat IPC: 0.73862 cumulative IPC: 0.81662 (Simulation time: 0 hr 3 min 55 sec) 
Heartbeat CPU  0 instructions:  134000002 cycles:  108985578 heartbeat IPC: 0.75414 cumulative IPC: 0.81463 (Simulation time: 0 hr 3 min 56 sec) 
Heartbeat CPU  0 instructions:  135000001 cycles:  110332935 heartbeat IPC: 0.74219 cumulative IPC: 0.81237 (Simulation time: 0 hr 3 min 58 sec) 
Heartbeat CPU  0 instructions:  136000000 cycles:  111673542 heartbeat IPC: 0.74593 cumulative IPC: 0.81036 (Simulation time: 0 hr 4 min 0 sec) 
Heartbeat CPU  0 instructions:  137000002 cycles:  113001022 heartbeat IPC: 0.75331 cumulative IPC: 0.80871 (Simulation time: 0 hr 4 min 2 sec) 
Heartbeat CPU  0 instructions:  138000000 cycles:  114347617 heartbeat IPC: 0.74261 cumulative IPC: 0.80682 (Simulation time: 0 hr 4 min 4 sec) 
Heartbeat CPU  0 instructions:  139000000 cycles:  115673360 heartbeat IPC: 0.75429 cumulative IPC: 0.80538 (Simulation time: 0 hr 4 min 5 sec) 
Heartbeat CPU  0 instructions:  140000000 cycles:  117016267 heartbeat IPC: 0.74465 cumulative IPC: 0.80374 (Simulation time: 0 hr 4 min 7 sec) 
Heartbeat CPU  0 instructions:  141000000 cycles:  118354593 heartbeat IPC: 0.74720 cumulative IPC: 0.80226 (Simulation time: 0 hr 4 min 9 sec) 
Heartbeat CPU  0 instructions:  142000001 cycles:  119687336 heartbeat IPC: 0.75033 cumulative IPC: 0.80094 (Simulation time: 0 hr 4 min 11 sec) 
Heartbeat CPU  0 instructions:  143000002 cycles:  121038833 heartbeat IPC: 0.73992 cumulative IPC: 0.79941 (Simulation time: 0 hr 4 min 12 sec) 
Heartbeat CPU  0 instructions:  144000000 cycles:  122350138 heartbeat IPC: 0.76260 cumulative IPC: 0.79853 (Simulation time: 0 hr 4 min 14 sec) 
Heartbeat CPU  0 instructions:  145000003 cycles:  123695940 heartbeat IPC: 0.74305 cumulative IPC: 0.79721 (Simulation time: 0 hr 4 min 16 sec) 
Heartbeat CPU  0 instructions:  146000000 cycles:  125038623 heartbeat IPC: 0.74478 cumulative IPC: 0.79599 (Simulation time: 0 hr 4 min 18 sec) 
Heartbeat CPU  0 instructions:  147000003 cycles:  126387909 heartbeat IPC: 0.74113 cumulative IPC: 0.79474 (Simulation time: 0 hr 4 min 19 sec) 
Heartbeat CPU  0 instructions:  148000000 cycles:  127825894 heartbeat IPC: 0.69542 cumulative IPC: 0.79238 (Simulation time: 0 hr 4 min 21 sec) 
Heartbeat CPU  0 instructions:  149000000 cycles:  129490955 heartbeat IPC: 0.60058 cumulative IPC: 0.78725 (Simulation time: 0 hr 4 min 23 sec) 
Heartbeat CPU  0 instructions:  150000002 cycles:  131115520 heartbeat IPC: 0.61555 cumulative IPC: 0.78288 (Simulation time: 0 hr 4 min 25 sec) 
Heartbeat CPU  0 instructions:  151000001 cycles:  132797096 heartbeat IPC: 0.59468 cumulative IPC: 0.77806 (Simulation time: 0 hr 4 min 27 sec) 
Heartbeat CPU  0 instructions:  152000000 cycles:  134372001 heartbeat IPC: 0.63496 cumulative IPC: 0.77470 (Simulation time: 0 hr 4 min 29 sec) 
Heartbeat CPU  0 instructions:  153000002 cycles:  136050954 heartbeat IPC: 0.59561 cumulative IPC: 0.77033 (Simulation time: 0 hr 4 min 31 sec) 
Heartbeat CPU  0 instructions:  154000003 cycles:  137651360 heartbeat IPC: 0.62484 cumulative IPC: 0.76702 (Simulation time: 0 hr 4 min 33 sec) 
Heartbeat CPU  0 instructions:  155000003 cycles:  139308540 heartbeat IPC: 0.60343 cumulative IPC: 0.76326 (Simulation time: 0 hr 4 min 35 sec) 
Heartbeat CPU  0 instructions:  156000000 cycles:  140938666 heartbeat IPC: 0.61345 cumulative IPC: 0.75994 (Simulation time: 0 hr 4 min 36 sec) 
Heartbeat CPU  0 instructions:  157000001 cycles:  142623701 heartbeat IPC: 0.59346 cumulative IPC: 0.75622 (Simulation time: 0 hr 4 min 38 sec) 
Heartbeat CPU  0 instructions:  158000001 cycles:  144240394 heartbeat IPC: 0.61855 cumulative IPC: 0.75333 (Simulation time: 0 hr 4 min 40 sec) 
Heartbeat CPU  0 instructions:  159000002 cycles:  145912934 heartbeat IPC: 0.59789 cumulative IPC: 0.75003 (Simulation time: 0 hr 4 min 42 sec) 
Heartbeat CPU  0 instructions:  160000000 cycles:  147544333 heartbeat IPC: 0.61297 cumulative IPC: 0.74724 (Simulation time: 0 hr 4 min 44 sec) 
Heartbeat CPU  0 instructions:  161000002 cycles:  149231473 heartbeat IPC: 0.59272 cumulative IPC: 0.74406 (Simulation time: 0 hr 4 min 46 sec) 
Heartbeat CPU  0 instructions:  162000002 cycles:  150842650 heartbeat IPC: 0.62066 cumulative IPC: 0.74168 (Simulation time: 0 hr 4 min 48 sec) 
Heartbeat CPU  0 instructions:  163000000 cycles:  152552763 heartbeat IPC: 0.58476 cumulative IPC: 0.73854 (Simulation time: 0 hr 4 min 50 sec) 
Heartbeat CPU  0 instructions:  164000000 cycles:  154182253 heartbeat IPC: 0.61369 cumulative IPC: 0.73620 (Simulation time: 0 hr 4 min 52 sec) 
Heartbeat CPU  0 instructions:  165000000 cycles:  155850611 heartbeat IPC: 0.59939 cumulative IPC: 0.73362 (Simulation time: 0 hr 4 min 53 sec) 
Heartbeat CPU  0 instructions:  166000001 cycles:  157446179 heartbeat IPC: 0.62674 cumulative IPC: 0.73173 (Simulation time: 0 hr 4 min 55 sec) 
Heartbeat CPU  0 instructions:  167000001 cycles:  159141855 heartbeat IPC: 0.58974 cumulative IPC: 0.72911 (Simulation time: 0 hr 4 min 57 sec) 
Heartbeat CPU  0 instructions:  168000000 cycles:  160750450 heartbeat IPC: 0.62166 cumulative IPC: 0.72726 (Simulation time: 0 hr 4 min 59 sec) 
Heartbeat CPU  0 instructions:  169000002 cycles:  162416881 heartbeat IPC: 0.60009 cumulative IPC: 0.72504 (Simulation time: 0 hr 5 min 1 sec) 
Heartbeat CPU  0 instructions:  170000003 cycles:  164053845 heartbeat IPC: 0.61089 cumulative IPC: 0.72310 (Simulation time: 0 hr 5 min 3 sec) 
Heartbeat CPU  0 instructions:  171000000 cycles:  165688259 heartbeat IPC: 0.61184 cumulative IPC: 0.72126 (Simulation time: 0 hr 5 min 5 sec) 
Heartbeat CPU  0 instructions:  172000000 cycles:  167313283 heartbeat IPC: 0.61538 cumulative IPC: 0.71954 (Simulation time: 0 hr 5 min 7 sec) 
Heartbeat CPU  0 instructions:  173000001 cycles:  168948064 heartbeat IPC: 0.61170 cumulative IPC: 0.71780 (Simulation time: 0 hr 5 min 8 sec) 
Heartbeat CPU  0 instructions:  174000001 cycles:  170594579 heartbeat IPC: 0.60734 cumulative IPC: 0.71604 (Simulation time: 0 hr 5 min 10 sec) 
Heartbeat CPU  0 instructions:  175000003 cycles:  172183874 heartbeat IPC: 0.62921 cumulative IPC: 0.71473 (Simulation time: 0 hr 5 min 12 sec) 
Heartbeat CPU  0 instructions:  176000000 cycles:  173867029 heartbeat IPC: 0.59412 cumulative IPC: 0.71283 (Simulation time: 0 hr 5 min 14 sec) 
Heartbeat CPU  0 instructions:  177000003 cycles:  175466091 heartbeat IPC: 0.62537 cumulative IPC: 0.71153 (Simulation time: 0 hr 5 min 16 sec) 
Heartbeat CPU  0 instructions:  178000003 cycles:  177130305 heartbeat IPC: 0.60088 cumulative IPC: 0.70986 (Simulation time: 0 hr 5 min 18 sec) 
Heartbeat CPU  0 instructions:  179000000 cycles:  178729499 heartbeat IPC: 0.62531 cumulative IPC: 0.70864 (Simulation time: 0 hr 5 min 20 sec) 
Heartbeat CPU  0 instructions:  180000000 cycles:  180427297 heartbeat IPC: 0.58900 cumulative IPC: 0.70685 (Simulation time: 0 hr 5 min 22 sec) 
Heartbeat CPU  0 instructions:  181000001 cycles:  182041941 heartbeat IPC: 0.61933 cumulative IPC: 0.70562 (Simulation time: 0 hr 5 min 24 sec) 
Heartbeat CPU  0 instructions:  182000001 cycles:  183703639 heartbeat IPC: 0.60179 cumulative IPC: 0.70414 (Simulation time: 0 hr 5 min 25 sec) 
Heartbeat CPU  0 instructions:  183000002 cycles:  185307258 heartbeat IPC: 0.62359 cumulative IPC: 0.70304 (Simulation time: 0 hr 5 min 27 sec) 
Heartbeat CPU  0 instructions:  184000000 cycles:  187009450 heartbeat IPC: 0.58748 cumulative IPC: 0.70140 (Simulation time: 0 hr 5 min 29 sec) 
Heartbeat CPU  0 instructions:  185000003 cycles:  188603363 heartbeat IPC: 0.62739 cumulative IPC: 0.70043 (Simulation time: 0 hr 5 min 31 sec) 
Heartbeat CPU  0 instructions:  186000003 cycles:  190302129 heartbeat IPC: 0.58866 cumulative IPC: 0.69889 (Simulation time: 0 hr 5 min 33 sec) 
Heartbeat CPU  0 instructions:  187000000 cycles:  191939341 heartbeat IPC: 0.61079 cumulative IPC: 0.69773 (Simulation time: 0 hr 5 min 35 sec) 
Heartbeat CPU  0 instructions:  188000000 cycles:  193621745 heartbeat IPC: 0.59439 cumulative IPC: 0.69635 (Simulation time: 0 hr 5 min 37 sec) 
Heartbeat CPU  0 instructions:  189000001 cycles:  195219723 heartbeat IPC: 0.62579 cumulative IPC: 0.69547 (Simulation time: 0 hr 5 min 39 sec) 
Heartbeat CPU  0 instructions:  190000001 cycles:  196922379 heartbeat IPC: 0.58732 cumulative IPC: 0.69405 (Simulation time: 0 hr 5 min 41 sec) 
Heartbeat CPU  0 instructions:  191000002 cycles:  198565359 heartbeat IPC: 0.60865 cumulative IPC: 0.69298 (Simulation time: 0 hr 5 min 42 sec) 
Heartbeat CPU  0 instructions:  192000000 cycles:  200233770 heartbeat IPC: 0.59937 cumulative IPC: 0.69181 (Simulation time: 0 hr 5 min 44 sec) 
Heartbeat CPU  0 instructions:  193000003 cycles:  201856445 heartbeat IPC: 0.61627 cumulative IPC: 0.69090 (Simulation time: 0 hr 5 min 46 sec) 
Heartbeat CPU  0 instructions:  194000000 cycles:  203537217 heartbeat IPC: 0.59496 cumulative IPC: 0.68972 (Simulation time: 0 hr 5 min 48 sec) 
Heartbeat CPU  0 instructions:  195000000 cycles:  205126093 heartbeat IPC: 0.62938 cumulative IPC: 0.68902 (Simulation time: 0 hr 5 min 50 sec) 
Heartbeat CPU  0 instructions:  196000000 cycles:  206791178 heartbeat IPC: 0.60057 cumulative IPC: 0.68796 (Simulation time: 0 hr 5 min 52 sec) 
Heartbeat CPU  0 instructions:  197000002 cycles:  208422625 heartbeat IPC: 0.61295 cumulative IPC: 0.68710 (Simulation time: 0 hr 5 min 54 sec) 
Heartbeat CPU  0 instructions:  198000001 cycles:  210090681 heartbeat IPC: 0.59950 cumulative IPC: 0.68607 (Simulation time: 0 hr 5 min 56 sec) 
Heartbeat CPU  0 instructions:  199000003 cycles:  211691567 heartbeat IPC: 0.62466 cumulative IPC: 0.68539 (Simulation time: 0 hr 5 min 58 sec) 
Heartbeat CPU  0 instructions:  200000000 cycles:  213359959 heartbeat IPC: 0.59938 cumulative IPC: 0.68441 (Simulation time: 0 hr 6 min 0 sec) 
Finished CPU 0 instructions: 100000001 cycles: 146110888 cumulative IPC: 0.68441 (Simulation time: 0 hr 6 min 0 sec) 

ChampSim completed all CPUs

[ROI Statistics]
Core_0_instructions 100000001
Core_0_cycles 146110888
Core_0_IPC 0.68441

Core_0_branch_prediction_accuracy 99.52414
Core_0_branch_MPKI 0.08716
Core_0_average_ROB_occupancy_at_mispredict 253.65145

Core_0_L1D_total_access 31965056
Core_0_L1D_total_hit 29569654
Core_0_L1D_total_miss 2395402
Core_0_L1D_loads 25842744
Core_0_L1D_load_hit 23447367
Core_0_L1D_load_miss 2395377
Core_0_L1D_RFOs 6122312
Core_0_L1D_RFO_hit 6122287
Core_0_L1D_RFO_miss 25
Core_0_L1D_prefetches 0
Core_0_L1D_prefetch_hit 0
Core_0_L1D_prefetch_miss 0
Core_0_L1D_writebacks 0
Core_0_L1D_writeback_hit 0
Core_0_L1D_writeback_miss 0
Core_0_L1D_prefetch_requested 0
Core_0_L1D_prefetch_issued 0
Core_0_L1D_prefetch_useful 0
Core_0_L1D_prefetch_useless 0
Core_0_L1D_prefetch_late 0
Core_0_L1D_average_miss_latency 85.13033

Core_0_L1I_total_access 21538743
Core_0_L1I_total_hit 21538666
Core_0_L1I_total_miss 77
Core_0_L1I_loads 21538743
Core_0_L1I_load_hit 21538666
Core_0_L1I_load_miss 77
Core_0_L1I_RFOs 0
Core_0_L1I_RFO_hit 0
Core_0_L1I_RFO_miss 0
Core_0_L1I_prefetches 0
Core_0_L1I_prefetch_hit 0
Core_0_L1I_prefetch_miss 0
Core_0_L1I_writebacks 0
Core_0_L1I_writeback_hit 0
Core_0_L1I_writeback_miss 0
Core_0_L1I_prefetch_requested 0
Core_0_L1I_prefetch_issued 0
Core_0_L1I_prefetch_useful 0
Core_0_L1I_prefetch_useless 0
Core_0_L1I_prefetch_late 0
Core_0_L1I_average_miss_latency 191.31169

Core_0_L2C_total_access 3075735
Core_0_L2C_total_hit 1196122
Core_0_L2C_total_miss 1879613
Core_0_L2C_loads 2395450
Core_0_L2C_load_hit 515971
Core_0_L2C_load_miss 1879479
Core_0_L2C_RFOs 25
Core_0_L2C_RFO_hit 0
Core_0_L2C_RFO_miss 25
Core_0_L2C_prefetches 0
Core_0_L2C_prefetch_hit 0
Core_0_L2C_prefetch_miss 0
Core_0_L2C_writebacks 680260
Core_0_L2C_writeback_hit 680151
Core_0_L2C_writeback_miss 109
Core_0_L2C_prefetch_requested 0
Core_0_L2C_prefetch_issued 0
Core_0_L2C_prefetch_useful 0
Core_0_L2C_prefetch_useless 0
Core_0_L2C_prefetch_late 0
Core_0_L2C_average_miss_latency 89.99099

Core_0_LLC_total_access 3977632
Core_0_LLC_total_hit 2049647
Core_0_LLC_total_miss 1927985
Core_0_LLC_loads 1879479
Core_0_LLC_load_hit 1349361
Core_0_LLC_load_miss 530118
Core_0_LLC_RFOs 25
Core_0_LLC_RFO_hit 0
Core_0_LLC_RFO_miss 25
Core_0_LLC_prefetches 1422689
Core_0_LLC_prefetch_hit 66695
Core_0_LLC_prefetch_miss 1355994
Core_0_LLC_writebacks 675439
Core_0_LLC_writeback_hit 633591
Core_0_LLC_writeback_miss 41848
Core_0_LLC_prefetch_requested 2453525
Core_0_LLC_prefetch_issued 2415300
Core_0_LLC_prefetch_useful 1533920
Core_0_LLC_prefetch_useless 371503
Core_0_LLC_prefetch_late 417808
Core_0_LLC_average_miss_latency 273.86051

Core_0_major_page_fault 0
Core_0_minor_page_fault 80857

LLC Next Line Prefetcher Final Stats: none
Channel_0_RQ_row_buffer_hit 431656
Channel_0_RQ_row_buffer_miss 1454481
Channel_0_WQ_row_buffer_hit 120209
Channel_0_WQ_row_buffer_miss 546784
Channel_0_WQ_full 0
Channel_0_dbus_congested 1010143

avg_congested_cycle 10
