*************************************************
   ChampSim Multicore Out-of-Order Simulator
   Last compiled: Dec 25 2023 16:22:18
*************************************************

trace_0 ./test_trace/459.GemsFDTD-1320B.champsimtrace.xz
CPU 0 L2C IP-based stride prefetcher
warmup_instructions 100000000
simulation_instructions 100000000
champsim_seed 264

num_cpus 1
cpu_freq 4000
dram_io_freq 2400
page_size 4096
block_size 64
max_read_per_cycle 8
max_fill_per_cycle 1
dram_channels 1
dram_ranks 1
dram_banks 8
dram_rows 65536
dram_columns 128
dram_row_size 8
dram_size 4096
dram_pages 1048576

fetch_width 6
decode_width 6
exec_width 4
lq_width 2
sq_width 2
retire_width 4
scheduler_size 128
branch_mispredict_penalty 20
rob_size 256
lq_size 72
sq_size 56
num_instr_destinations_sparc 4
num_instr_destinations 2
num_instr_sources 4

itlb_set 16
itlb_way 8
itlb_rq_size 16
itlb_wq_size 16
itlb_pq_size 0
itlb_mshr_size 8
itlb_latency 1

dtlb_set 16
dtlb_way 4
dtlb_rq_size 16
dtlb_wq_size 16
dtlb_pq_size 0
dtlb_mshr_size 8
dtlb_latency 1

stlb_set 128
stlb_way 12
stlb_rq_size 32
stlb_wq_size 32
stlb_pq_size 0
stlb_mshr_size 16
stlb_latency 8

l1i_size 32
l1i_set 64
l1i_way 8
l1i_rq_size 64
l1i_wq_size 64
l1i_pq_size 8
l1i_mshr_size 8
l1i_latency 1

l1d_size 32
l1d_set 64
l1d_way 8
l1d_rq_size 64
l1d_wq_size 64
l1d_pq_size 8
l1d_mshr_size 16
l1d_latency 4

l2c_size 512
l2c_set 1024
l2c_way 8
l2c_rq_size 32
l2c_wq_size 32
l2c_pq_size 16
l2c_mshr_size 32
l2c_latency 10

llc_size 2048
llc_set 2048
llc_way 16
llc_rq_size 32
llc_wq_size 32
llc_pq_size 32
llc_mshr_size 64
llc_latency 20

dram_channel_width 8
dram_wq_size 64
dram_rq_size 64
tRP 15
tRCD 15
tCAS 12.5
dram_dbus_turn_around_time 30
dram_write_high_wm 56
dram_write_low_wm 48
min_dram_writes_per_switch 16
dram_mtps 2400
dram_dbus_return_time 13


Heartbeat CPU  0 instructions:    1000000 cycles:     673504 heartbeat IPC: 1.48477 cumulative IPC: 1.48477 (Simulation time: 0 hr 0 min 3 sec) 
Heartbeat CPU  0 instructions:    2000003 cycles:    1346398 heartbeat IPC: 1.48612 cumulative IPC: 1.48545 (Simulation time: 0 hr 0 min 5 sec) 
Heartbeat CPU  0 instructions:    3000002 cycles:    2019206 heartbeat IPC: 1.48631 cumulative IPC: 1.48573 (Simulation time: 0 hr 0 min 7 sec) 
Heartbeat CPU  0 instructions:    4000000 cycles:    2692126 heartbeat IPC: 1.48606 cumulative IPC: 1.48581 (Simulation time: 0 hr 0 min 9 sec) 
Heartbeat CPU  0 instructions:    5000001 cycles:    3365236 heartbeat IPC: 1.48564 cumulative IPC: 1.48578 (Simulation time: 0 hr 0 min 11 sec) 
Heartbeat CPU  0 instructions:    6000001 cycles:    4037732 heartbeat IPC: 1.48700 cumulative IPC: 1.48598 (Simulation time: 0 hr 0 min 13 sec) 
Heartbeat CPU  0 instructions:    7000001 cycles:    4710363 heartbeat IPC: 1.48670 cumulative IPC: 1.48609 (Simulation time: 0 hr 0 min 16 sec) 
Heartbeat CPU  0 instructions:    8000000 cycles:    5383110 heartbeat IPC: 1.48644 cumulative IPC: 1.48613 (Simulation time: 0 hr 0 min 18 sec) 
Heartbeat CPU  0 instructions:    9000003 cycles:    6055929 heartbeat IPC: 1.48629 cumulative IPC: 1.48615 (Simulation time: 0 hr 0 min 20 sec) 
Heartbeat CPU  0 instructions:   10000003 cycles:    6728697 heartbeat IPC: 1.48640 cumulative IPC: 1.48617 (Simulation time: 0 hr 0 min 22 sec) 
Heartbeat CPU  0 instructions:   11000003 cycles:    7401433 heartbeat IPC: 1.48647 cumulative IPC: 1.48620 (Simulation time: 0 hr 0 min 24 sec) 
Heartbeat CPU  0 instructions:   12000000 cycles:    8074132 heartbeat IPC: 1.48654 cumulative IPC: 1.48623 (Simulation time: 0 hr 0 min 26 sec) 
Heartbeat CPU  0 instructions:   13000000 cycles:    8751929 heartbeat IPC: 1.47537 cumulative IPC: 1.48539 (Simulation time: 0 hr 0 min 28 sec) 
Heartbeat CPU  0 instructions:   14000002 cycles:    9431077 heartbeat IPC: 1.47244 cumulative IPC: 1.48445 (Simulation time: 0 hr 0 min 30 sec) 
Heartbeat CPU  0 instructions:   15000000 cycles:   10110302 heartbeat IPC: 1.47226 cumulative IPC: 1.48364 (Simulation time: 0 hr 0 min 32 sec) 
Heartbeat CPU  0 instructions:   16000000 cycles:   10789547 heartbeat IPC: 1.47222 cumulative IPC: 1.48292 (Simulation time: 0 hr 0 min 34 sec) 
Heartbeat CPU  0 instructions:   17000002 cycles:   11468868 heartbeat IPC: 1.47206 cumulative IPC: 1.48227 (Simulation time: 0 hr 0 min 36 sec) 
Heartbeat CPU  0 instructions:   18000003 cycles:   12148078 heartbeat IPC: 1.47230 cumulative IPC: 1.48172 (Simulation time: 0 hr 0 min 38 sec) 
Heartbeat CPU  0 instructions:   19000003 cycles:   12827191 heartbeat IPC: 1.47251 cumulative IPC: 1.48123 (Simulation time: 0 hr 0 min 41 sec) 
Heartbeat CPU  0 instructions:   20000000 cycles:   13506492 heartbeat IPC: 1.47210 cumulative IPC: 1.48077 (Simulation time: 0 hr 0 min 43 sec) 
Heartbeat CPU  0 instructions:   21000002 cycles:   14185744 heartbeat IPC: 1.47221 cumulative IPC: 1.48036 (Simulation time: 0 hr 0 min 45 sec) 
Heartbeat CPU  0 instructions:   22000000 cycles:   14864981 heartbeat IPC: 1.47224 cumulative IPC: 1.47999 (Simulation time: 0 hr 0 min 47 sec) 
Heartbeat CPU  0 instructions:   23000000 cycles:   15544234 heartbeat IPC: 1.47221 cumulative IPC: 1.47965 (Simulation time: 0 hr 0 min 49 sec) 
Heartbeat CPU  0 instructions:   24000000 cycles:   16223497 heartbeat IPC: 1.47218 cumulative IPC: 1.47934 (Simulation time: 0 hr 0 min 51 sec) 
Heartbeat CPU  0 instructions:   25000001 cycles:   16902883 heartbeat IPC: 1.47192 cumulative IPC: 1.47904 (Simulation time: 0 hr 0 min 53 sec) 
Heartbeat CPU  0 instructions:   26000001 cycles:   17582171 heartbeat IPC: 1.47213 cumulative IPC: 1.47877 (Simulation time: 0 hr 0 min 55 sec) 
Heartbeat CPU  0 instructions:   27000001 cycles:   18261398 heartbeat IPC: 1.47226 cumulative IPC: 1.47853 (Simulation time: 0 hr 0 min 57 sec) 
Heartbeat CPU  0 instructions:   28000000 cycles:   18939800 heartbeat IPC: 1.47405 cumulative IPC: 1.47837 (Simulation time: 0 hr 0 min 59 sec) 
Heartbeat CPU  0 instructions:   29000002 cycles:   19616514 heartbeat IPC: 1.47773 cumulative IPC: 1.47835 (Simulation time: 0 hr 1 min 1 sec) 
Heartbeat CPU  0 instructions:   30000000 cycles:   20293191 heartbeat IPC: 1.47781 cumulative IPC: 1.47833 (Simulation time: 0 hr 1 min 3 sec) 
Heartbeat CPU  0 instructions:   31000000 cycles:   20969805 heartbeat IPC: 1.47795 cumulative IPC: 1.47832 (Simulation time: 0 hr 1 min 5 sec) 
Heartbeat CPU  0 instructions:   32000000 cycles:   21646400 heartbeat IPC: 1.47799 cumulative IPC: 1.47831 (Simulation time: 0 hr 1 min 8 sec) 
Heartbeat CPU  0 instructions:   33000002 cycles:   22323192 heartbeat IPC: 1.47756 cumulative IPC: 1.47828 (Simulation time: 0 hr 1 min 10 sec) 
Heartbeat CPU  0 instructions:   34000000 cycles:   22999840 heartbeat IPC: 1.47787 cumulative IPC: 1.47827 (Simulation time: 0 hr 1 min 12 sec) 
Heartbeat CPU  0 instructions:   35000002 cycles:   23676519 heartbeat IPC: 1.47781 cumulative IPC: 1.47826 (Simulation time: 0 hr 1 min 14 sec) 
Heartbeat CPU  0 instructions:   36000000 cycles:   24353174 heartbeat IPC: 1.47786 cumulative IPC: 1.47825 (Simulation time: 0 hr 1 min 16 sec) 
Heartbeat CPU  0 instructions:   37000000 cycles:   25030004 heartbeat IPC: 1.47748 cumulative IPC: 1.47823 (Simulation time: 0 hr 1 min 18 sec) 
Heartbeat CPU  0 instructions:   38000000 cycles:   25706614 heartbeat IPC: 1.47796 cumulative IPC: 1.47822 (Simulation time: 0 hr 1 min 20 sec) 
Heartbeat CPU  0 instructions:   39000002 cycles:   26383334 heartbeat IPC: 1.47772 cumulative IPC: 1.47821 (Simulation time: 0 hr 1 min 22 sec) 
Heartbeat CPU  0 instructions:   40000000 cycles:   27060142 heartbeat IPC: 1.47752 cumulative IPC: 1.47819 (Simulation time: 0 hr 1 min 24 sec) 
Heartbeat CPU  0 instructions:   41000000 cycles:   27737085 heartbeat IPC: 1.47723 cumulative IPC: 1.47817 (Simulation time: 0 hr 1 min 26 sec) 
Heartbeat CPU  0 instructions:   42000002 cycles:   28413729 heartbeat IPC: 1.47789 cumulative IPC: 1.47816 (Simulation time: 0 hr 1 min 28 sec) 
Heartbeat CPU  0 instructions:   43000002 cycles:   29090372 heartbeat IPC: 1.47788 cumulative IPC: 1.47815 (Simulation time: 0 hr 1 min 30 sec) 
Heartbeat CPU  0 instructions:   44000000 cycles:   29756798 heartbeat IPC: 1.50054 cumulative IPC: 1.47865 (Simulation time: 0 hr 1 min 32 sec) 
Heartbeat CPU  0 instructions:   45000003 cycles:   30423203 heartbeat IPC: 1.50059 cumulative IPC: 1.47913 (Simulation time: 0 hr 1 min 35 sec) 
Heartbeat CPU  0 instructions:   46000001 cycles:   31089355 heartbeat IPC: 1.50116 cumulative IPC: 1.47961 (Simulation time: 0 hr 1 min 37 sec) 
Heartbeat CPU  0 instructions:   47000000 cycles:   31755571 heartbeat IPC: 1.50101 cumulative IPC: 1.48006 (Simulation time: 0 hr 1 min 39 sec) 
Heartbeat CPU  0 instructions:   48000000 cycles:   32421611 heartbeat IPC: 1.50141 cumulative IPC: 1.48049 (Simulation time: 0 hr 1 min 41 sec) 
Heartbeat CPU  0 instructions:   49000000 cycles:   33087726 heartbeat IPC: 1.50124 cumulative IPC: 1.48091 (Simulation time: 0 hr 1 min 43 sec) 
Heartbeat CPU  0 instructions:   50000003 cycles:   33754070 heartbeat IPC: 1.50073 cumulative IPC: 1.48130 (Simulation time: 0 hr 1 min 45 sec) 
Heartbeat CPU  0 instructions:   51000003 cycles:   34420234 heartbeat IPC: 1.50113 cumulative IPC: 1.48169 (Simulation time: 0 hr 1 min 47 sec) 
Heartbeat CPU  0 instructions:   52000000 cycles:   35086579 heartbeat IPC: 1.50072 cumulative IPC: 1.48205 (Simulation time: 0 hr 1 min 49 sec) 
Heartbeat CPU  0 instructions:   53000003 cycles:   35752799 heartbeat IPC: 1.50101 cumulative IPC: 1.48240 (Simulation time: 0 hr 1 min 52 sec) 
Heartbeat CPU  0 instructions:   54000000 cycles:   36418768 heartbeat IPC: 1.50157 cumulative IPC: 1.48275 (Simulation time: 0 hr 1 min 54 sec) 
Heartbeat CPU  0 instructions:   55000000 cycles:   37085017 heartbeat IPC: 1.50094 cumulative IPC: 1.48308 (Simulation time: 0 hr 1 min 56 sec) 
Heartbeat CPU  0 instructions:   56000000 cycles:   37746875 heartbeat IPC: 1.51090 cumulative IPC: 1.48357 (Simulation time: 0 hr 1 min 58 sec) 
Heartbeat CPU  0 instructions:   57000003 cycles:   38408164 heartbeat IPC: 1.51220 cumulative IPC: 1.48406 (Simulation time: 0 hr 2 min 0 sec) 
Heartbeat CPU  0 instructions:   58000000 cycles:   39069665 heartbeat IPC: 1.51171 cumulative IPC: 1.48453 (Simulation time: 0 hr 2 min 2 sec) 
Heartbeat CPU  0 instructions:   59000000 cycles:   39730962 heartbeat IPC: 1.51218 cumulative IPC: 1.48499 (Simulation time: 0 hr 2 min 4 sec) 
Heartbeat CPU  0 instructions:   60000000 cycles:   40392238 heartbeat IPC: 1.51223 cumulative IPC: 1.48543 (Simulation time: 0 hr 2 min 6 sec) 
Heartbeat CPU  0 instructions:   61000001 cycles:   41054148 heartbeat IPC: 1.51078 cumulative IPC: 1.48584 (Simulation time: 0 hr 2 min 8 sec) 
Heartbeat CPU  0 instructions:   62000000 cycles:   41715625 heartbeat IPC: 1.51177 cumulative IPC: 1.48625 (Simulation time: 0 hr 2 min 11 sec) 
Heartbeat CPU  0 instructions:   63000001 cycles:   42377047 heartbeat IPC: 1.51190 cumulative IPC: 1.48665 (Simulation time: 0 hr 2 min 13 sec) 
Heartbeat CPU  0 instructions:   64000000 cycles:   43038462 heartbeat IPC: 1.51191 cumulative IPC: 1.48704 (Simulation time: 0 hr 2 min 15 sec) 
Heartbeat CPU  0 instructions:   65000003 cycles:   43699959 heartbeat IPC: 1.51173 cumulative IPC: 1.48742 (Simulation time: 0 hr 2 min 17 sec) 
Heartbeat CPU  0 instructions:   66000000 cycles:   44361311 heartbeat IPC: 1.51205 cumulative IPC: 1.48778 (Simulation time: 0 hr 2 min 19 sec) 
Heartbeat CPU  0 instructions:   67000000 cycles:   45022933 heartbeat IPC: 1.51144 cumulative IPC: 1.48813 (Simulation time: 0 hr 2 min 21 sec) 
Heartbeat CPU  0 instructions:   68000000 cycles:   45693128 heartbeat IPC: 1.49210 cumulative IPC: 1.48819 (Simulation time: 0 hr 2 min 23 sec) 
Heartbeat CPU  0 instructions:   69000002 cycles:   46363933 heartbeat IPC: 1.49075 cumulative IPC: 1.48823 (Simulation time: 0 hr 2 min 25 sec) 
Heartbeat CPU  0 instructions:   70000001 cycles:   47035026 heartbeat IPC: 1.49010 cumulative IPC: 1.48825 (Simulation time: 0 hr 2 min 28 sec) 
Heartbeat CPU  0 instructions:   71000002 cycles:   47705864 heartbeat IPC: 1.49067 cumulative IPC: 1.48829 (Simulation time: 0 hr 2 min 30 sec) 
Heartbeat CPU  0 instructions:   72000000 cycles:   48376957 heartbeat IPC: 1.49010 cumulative IPC: 1.48831 (Simulation time: 0 hr 2 min 32 sec) 
Heartbeat CPU  0 instructions:   73000002 cycles:   49047948 heartbeat IPC: 1.49034 cumulative IPC: 1.48834 (Simulation time: 0 hr 2 min 34 sec) 
Heartbeat CPU  0 instructions:   74000000 cycles:   49718790 heartbeat IPC: 1.49066 cumulative IPC: 1.48837 (Simulation time: 0 hr 2 min 36 sec) 
Heartbeat CPU  0 instructions:   75000001 cycles:   50390008 heartbeat IPC: 1.48983 cumulative IPC: 1.48839 (Simulation time: 0 hr 2 min 38 sec) 
Heartbeat CPU  0 instructions:   76000000 cycles:   51060646 heartbeat IPC: 1.49112 cumulative IPC: 1.48843 (Simulation time: 0 hr 2 min 40 sec) 
Heartbeat CPU  0 instructions:   77000000 cycles:   51731709 heartbeat IPC: 1.49017 cumulative IPC: 1.48845 (Simulation time: 0 hr 2 min 42 sec) 
Heartbeat CPU  0 instructions:   78000003 cycles:   52402654 heartbeat IPC: 1.49044 cumulative IPC: 1.48847 (Simulation time: 0 hr 2 min 45 sec) 
Heartbeat CPU  0 instructions:   79000002 cycles:   53073494 heartbeat IPC: 1.49067 cumulative IPC: 1.48850 (Simulation time: 0 hr 2 min 47 sec) 
Heartbeat CPU  0 instructions:   80000000 cycles:   53746343 heartbeat IPC: 1.48621 cumulative IPC: 1.48847 (Simulation time: 0 hr 2 min 49 sec) 
Heartbeat CPU  0 instructions:   81000003 cycles:   54420043 heartbeat IPC: 1.48434 cumulative IPC: 1.48842 (Simulation time: 0 hr 2 min 51 sec) 
Heartbeat CPU  0 instructions:   82000001 cycles:   55093182 heartbeat IPC: 1.48557 cumulative IPC: 1.48839 (Simulation time: 0 hr 2 min 53 sec) 
Heartbeat CPU  0 instructions:   83000002 cycles:   55766629 heartbeat IPC: 1.48490 cumulative IPC: 1.48835 (Simulation time: 0 hr 2 min 55 sec) 
Heartbeat CPU  0 instructions:   84000000 cycles:   56439710 heartbeat IPC: 1.48570 cumulative IPC: 1.48831 (Simulation time: 0 hr 2 min 57 sec) 
Heartbeat CPU  0 instructions:   85000000 cycles:   57113155 heartbeat IPC: 1.48490 cumulative IPC: 1.48827 (Simulation time: 0 hr 3 min 0 sec) 
Heartbeat CPU  0 instructions:   86000001 cycles:   57786419 heartbeat IPC: 1.48530 cumulative IPC: 1.48824 (Simulation time: 0 hr 3 min 2 sec) 
Heartbeat CPU  0 instructions:   87000000 cycles:   58459779 heartbeat IPC: 1.48509 cumulative IPC: 1.48820 (Simulation time: 0 hr 3 min 4 sec) 
Heartbeat CPU  0 instructions:   88000000 cycles:   59133252 heartbeat IPC: 1.48484 cumulative IPC: 1.48816 (Simulation time: 0 hr 3 min 6 sec) 
Heartbeat CPU  0 instructions:   89000002 cycles:   59806611 heartbeat IPC: 1.48509 cumulative IPC: 1.48813 (Simulation time: 0 hr 3 min 8 sec) 
Heartbeat CPU  0 instructions:   90000001 cycles:   60479709 heartbeat IPC: 1.48567 cumulative IPC: 1.48810 (Simulation time: 0 hr 3 min 10 sec) 
Heartbeat CPU  0 instructions:   91000000 cycles:   61152819 heartbeat IPC: 1.48564 cumulative IPC: 1.48808 (Simulation time: 0 hr 3 min 13 sec) 
Heartbeat CPU  0 instructions:   92000000 cycles:   61829229 heartbeat IPC: 1.47839 cumulative IPC: 1.48797 (Simulation time: 0 hr 3 min 15 sec) 
Heartbeat CPU  0 instructions:   93000001 cycles:   62508503 heartbeat IPC: 1.47216 cumulative IPC: 1.48780 (Simulation time: 0 hr 3 min 17 sec) 
Heartbeat CPU  0 instructions:   94000001 cycles:   63187639 heartbeat IPC: 1.47246 cumulative IPC: 1.48763 (Simulation time: 0 hr 3 min 19 sec) 
Heartbeat CPU  0 instructions:   95000001 cycles:   63866891 heartbeat IPC: 1.47221 cumulative IPC: 1.48747 (Simulation time: 0 hr 3 min 21 sec) 
Heartbeat CPU  0 instructions:   96000000 cycles:   64546123 heartbeat IPC: 1.47225 cumulative IPC: 1.48731 (Simulation time: 0 hr 3 min 23 sec) 
Heartbeat CPU  0 instructions:   97000000 cycles:   65225372 heartbeat IPC: 1.47221 cumulative IPC: 1.48715 (Simulation time: 0 hr 3 min 25 sec) 
Heartbeat CPU  0 instructions:   98000000 cycles:   65904612 heartbeat IPC: 1.47223 cumulative IPC: 1.48700 (Simulation time: 0 hr 3 min 27 sec) 
Heartbeat CPU  0 instructions:   99000000 cycles:   66583843 heartbeat IPC: 1.47225 cumulative IPC: 1.48685 (Simulation time: 0 hr 3 min 29 sec) 
Heartbeat CPU  0 instructions:  100000000 cycles:   67263099 heartbeat IPC: 1.47220 cumulative IPC: 1.48670 (Simulation time: 0 hr 3 min 31 sec) 

Warmup complete CPU  0 instructions:  100000001 cycles:   67263100 (Simulation time: 0 hr 3 min 31 sec) 

Heartbeat CPU  0 instructions:  101000000 cycles:   68718145 heartbeat IPC: 0.68726 cumulative IPC: 0.68726 (Simulation time: 0 hr 3 min 34 sec) 
Heartbeat CPU  0 instructions:  102000002 cycles:   70175954 heartbeat IPC: 0.68596 cumulative IPC: 0.68661 (Simulation time: 0 hr 3 min 36 sec) 
Heartbeat CPU  0 instructions:  103000001 cycles:   71632486 heartbeat IPC: 0.68656 cumulative IPC: 0.68660 (Simulation time: 0 hr 3 min 38 sec) 
Heartbeat CPU  0 instructions:  104000000 cycles:   73091293 heartbeat IPC: 0.68549 cumulative IPC: 0.68632 (Simulation time: 0 hr 3 min 41 sec) 
Heartbeat CPU  0 instructions:  105000001 cycles:   74551163 heartbeat IPC: 0.68499 cumulative IPC: 0.68605 (Simulation time: 0 hr 3 min 43 sec) 
Heartbeat CPU  0 instructions:  106000001 cycles:   76008031 heartbeat IPC: 0.68640 cumulative IPC: 0.68611 (Simulation time: 0 hr 3 min 46 sec) 
Heartbeat CPU  0 instructions:  107000002 cycles:   77619247 heartbeat IPC: 0.62065 cumulative IPC: 0.67593 (Simulation time: 0 hr 3 min 48 sec) 
Heartbeat CPU  0 instructions:  108000000 cycles:   79065557 heartbeat IPC: 0.69141 cumulative IPC: 0.67782 (Simulation time: 0 hr 3 min 50 sec) 
Heartbeat CPU  0 instructions:  109000000 cycles:   80512951 heartbeat IPC: 0.69090 cumulative IPC: 0.67925 (Simulation time: 0 hr 3 min 53 sec) 
Heartbeat CPU  0 instructions:  110000002 cycles:   81959494 heartbeat IPC: 0.69130 cumulative IPC: 0.68044 (Simulation time: 0 hr 3 min 55 sec) 
Heartbeat CPU  0 instructions:  111000000 cycles:   83405882 heartbeat IPC: 0.69138 cumulative IPC: 0.68142 (Simulation time: 0 hr 3 min 58 sec) 
Heartbeat CPU  0 instructions:  112000000 cycles:   84852442 heartbeat IPC: 0.69130 cumulative IPC: 0.68223 (Simulation time: 0 hr 4 min 0 sec) 
Heartbeat CPU  0 instructions:  113000000 cycles:   86301977 heartbeat IPC: 0.68988 cumulative IPC: 0.68281 (Simulation time: 0 hr 4 min 2 sec) 
Heartbeat CPU  0 instructions:  114000002 cycles:   87749862 heartbeat IPC: 0.69066 cumulative IPC: 0.68337 (Simulation time: 0 hr 4 min 5 sec) 
Heartbeat CPU  0 instructions:  115000002 cycles:   89190094 heartbeat IPC: 0.69433 cumulative IPC: 0.68409 (Simulation time: 0 hr 4 min 7 sec) 
Heartbeat CPU  0 instructions:  116000000 cycles:   90632811 heartbeat IPC: 0.69314 cumulative IPC: 0.68465 (Simulation time: 0 hr 4 min 9 sec) 
Heartbeat CPU  0 instructions:  117000002 cycles:   92073154 heartbeat IPC: 0.69428 cumulative IPC: 0.68521 (Simulation time: 0 hr 4 min 12 sec) 
Heartbeat CPU  0 instructions:  118000000 cycles:   93517584 heartbeat IPC: 0.69231 cumulative IPC: 0.68560 (Simulation time: 0 hr 4 min 14 sec) 
Heartbeat CPU  0 instructions:  119000000 cycles:   94956669 heartbeat IPC: 0.69489 cumulative IPC: 0.68608 (Simulation time: 0 hr 4 min 17 sec) 
Heartbeat CPU  0 instructions:  120000000 cycles:   96403376 heartbeat IPC: 0.69122 cumulative IPC: 0.68634 (Simulation time: 0 hr 4 min 19 sec) 
Heartbeat CPU  0 instructions:  121000002 cycles:   97847069 heartbeat IPC: 0.69267 cumulative IPC: 0.68663 (Simulation time: 0 hr 4 min 21 sec) 
Heartbeat CPU  0 instructions:  122000002 cycles:   99293938 heartbeat IPC: 0.69115 cumulative IPC: 0.68684 (Simulation time: 0 hr 4 min 24 sec) 
Heartbeat CPU  0 instructions:  123000003 cycles:  100270599 heartbeat IPC: 1.02390 cumulative IPC: 0.69681 (Simulation time: 0 hr 4 min 26 sec) 
Heartbeat CPU  0 instructions:  124000000 cycles:  101222667 heartbeat IPC: 1.05034 cumulative IPC: 0.70672 (Simulation time: 0 hr 4 min 27 sec) 
Heartbeat CPU  0 instructions:  125000000 cycles:  102318016 heartbeat IPC: 0.91295 cumulative IPC: 0.71317 (Simulation time: 0 hr 4 min 29 sec) 
Heartbeat CPU  0 instructions:  126000001 cycles:  103521333 heartbeat IPC: 0.83104 cumulative IPC: 0.71708 (Simulation time: 0 hr 4 min 31 sec) 
Heartbeat CPU  0 instructions:  127000001 cycles:  104676862 heartbeat IPC: 0.86540 cumulative IPC: 0.72166 (Simulation time: 0 hr 4 min 33 sec) 
Heartbeat CPU  0 instructions:  128000000 cycles:  105839910 heartbeat IPC: 0.85981 cumulative IPC: 0.72582 (Simulation time: 0 hr 4 min 35 sec) 
Heartbeat CPU  0 instructions:  129000003 cycles:  107007338 heartbeat IPC: 0.85659 cumulative IPC: 0.72967 (Simulation time: 0 hr 4 min 37 sec) 
Heartbeat CPU  0 instructions:  130000003 cycles:  108158382 heartbeat IPC: 0.86878 cumulative IPC: 0.73358 (Simulation time: 0 hr 4 min 39 sec) 
Heartbeat CPU  0 instructions:  131000003 cycles:  109333544 heartbeat IPC: 0.85095 cumulative IPC: 0.73686 (Simulation time: 0 hr 4 min 41 sec) 
Heartbeat CPU  0 instructions:  132000000 cycles:  110498244 heartbeat IPC: 0.85859 cumulative IPC: 0.74014 (Simulation time: 0 hr 4 min 43 sec) 
Heartbeat CPU  0 instructions:  133000000 cycles:  111657406 heartbeat IPC: 0.86269 cumulative IPC: 0.74334 (Simulation time: 0 hr 4 min 45 sec) 
Heartbeat CPU  0 instructions:  134000002 cycles:  112814097 heartbeat IPC: 0.86454 cumulative IPC: 0.74642 (Simulation time: 0 hr 4 min 47 sec) 
Heartbeat CPU  0 instructions:  135000001 cycles:  113973163 heartbeat IPC: 0.86276 cumulative IPC: 0.74930 (Simulation time: 0 hr 4 min 49 sec) 
Heartbeat CPU  0 instructions:  136000000 cycles:  115122608 heartbeat IPC: 0.86998 cumulative IPC: 0.75220 (Simulation time: 0 hr 4 min 51 sec) 
Heartbeat CPU  0 instructions:  137000002 cycles:  116272152 heartbeat IPC: 0.86991 cumulative IPC: 0.75496 (Simulation time: 0 hr 4 min 53 sec) 
Heartbeat CPU  0 instructions:  138000000 cycles:  117435247 heartbeat IPC: 0.85977 cumulative IPC: 0.75739 (Simulation time: 0 hr 4 min 55 sec) 
Heartbeat CPU  0 instructions:  139000000 cycles:  118595237 heartbeat IPC: 0.86208 cumulative IPC: 0.75976 (Simulation time: 0 hr 4 min 57 sec) 
Heartbeat CPU  0 instructions:  140000000 cycles:  119763815 heartbeat IPC: 0.85574 cumulative IPC: 0.76189 (Simulation time: 0 hr 4 min 59 sec) 
Heartbeat CPU  0 instructions:  141000000 cycles:  120917615 heartbeat IPC: 0.86670 cumulative IPC: 0.76415 (Simulation time: 0 hr 5 min 1 sec) 
Heartbeat CPU  0 instructions:  142000001 cycles:  122065519 heartbeat IPC: 0.87115 cumulative IPC: 0.76639 (Simulation time: 0 hr 5 min 2 sec) 
Heartbeat CPU  0 instructions:  143000002 cycles:  123215758 heartbeat IPC: 0.86939 cumulative IPC: 0.76851 (Simulation time: 0 hr 5 min 4 sec) 
Heartbeat CPU  0 instructions:  144000000 cycles:  124389826 heartbeat IPC: 0.85174 cumulative IPC: 0.77022 (Simulation time: 0 hr 5 min 6 sec) 
Heartbeat CPU  0 instructions:  145000002 cycles:  125562925 heartbeat IPC: 0.85244 cumulative IPC: 0.77187 (Simulation time: 0 hr 5 min 8 sec) 
Heartbeat CPU  0 instructions:  146000000 cycles:  126734948 heartbeat IPC: 0.85322 cumulative IPC: 0.77348 (Simulation time: 0 hr 5 min 10 sec) 
Heartbeat CPU  0 instructions:  147000003 cycles:  127910891 heartbeat IPC: 0.85038 cumulative IPC: 0.77497 (Simulation time: 0 hr 5 min 12 sec) 
Heartbeat CPU  0 instructions:  148000000 cycles:  129163588 heartbeat IPC: 0.79828 cumulative IPC: 0.77544 (Simulation time: 0 hr 5 min 14 sec) 
Heartbeat CPU  0 instructions:  149000000 cycles:  130527604 heartbeat IPC: 0.73313 cumulative IPC: 0.77453 (Simulation time: 0 hr 5 min 16 sec) 
Heartbeat CPU  0 instructions:  150000002 cycles:  131923042 heartbeat IPC: 0.71662 cumulative IPC: 0.77328 (Simulation time: 0 hr 5 min 18 sec) 
Heartbeat CPU  0 instructions:  151000001 cycles:  133285625 heartbeat IPC: 0.73390 cumulative IPC: 0.77246 (Simulation time: 0 hr 5 min 20 sec) 
Heartbeat CPU  0 instructions:  152000000 cycles:  134630901 heartbeat IPC: 0.74334 cumulative IPC: 0.77188 (Simulation time: 0 hr 5 min 22 sec) 
Heartbeat CPU  0 instructions:  153000002 cycles:  136053012 heartbeat IPC: 0.70318 cumulative IPC: 0.77046 (Simulation time: 0 hr 5 min 25 sec) 
Heartbeat CPU  0 instructions:  154000003 cycles:  137394458 heartbeat IPC: 0.74546 cumulative IPC: 0.76998 (Simulation time: 0 hr 5 min 27 sec) 
Heartbeat CPU  0 instructions:  155000000 cycles:  138786061 heartbeat IPC: 0.71859 cumulative IPC: 0.76898 (Simulation time: 0 hr 5 min 29 sec) 
Heartbeat CPU  0 instructions:  156000000 cycles:  140161474 heartbeat IPC: 0.72705 cumulative IPC: 0.76819 (Simulation time: 0 hr 5 min 31 sec) 
Heartbeat CPU  0 instructions:  157000001 cycles:  141554726 heartbeat IPC: 0.71775 cumulative IPC: 0.76725 (Simulation time: 0 hr 5 min 33 sec) 
Heartbeat CPU  0 instructions:  158000001 cycles:  142919918 heartbeat IPC: 0.73250 cumulative IPC: 0.76662 (Simulation time: 0 hr 5 min 35 sec) 
Heartbeat CPU  0 instructions:  159000001 cycles:  144335414 heartbeat IPC: 0.70647 cumulative IPC: 0.76551 (Simulation time: 0 hr 5 min 37 sec) 
Heartbeat CPU  0 instructions:  160000000 cycles:  145693611 heartbeat IPC: 0.73627 cumulative IPC: 0.76501 (Simulation time: 0 hr 5 min 38 sec) 
Heartbeat CPU  0 instructions:  161000002 cycles:  147082190 heartbeat IPC: 0.72016 cumulative IPC: 0.76423 (Simulation time: 0 hr 5 min 40 sec) 
Heartbeat CPU  0 instructions:  162000003 cycles:  148452366 heartbeat IPC: 0.72983 cumulative IPC: 0.76365 (Simulation time: 0 hr 5 min 43 sec) 
Heartbeat CPU  0 instructions:  163000003 cycles:  149908147 heartbeat IPC: 0.68692 cumulative IPC: 0.76230 (Simulation time: 0 hr 5 min 45 sec) 
Heartbeat CPU  0 instructions:  164000000 cycles:  151279052 heartbeat IPC: 0.72944 cumulative IPC: 0.76176 (Simulation time: 0 hr 5 min 47 sec) 
Heartbeat CPU  0 instructions:  165000000 cycles:  152703301 heartbeat IPC: 0.70212 cumulative IPC: 0.76077 (Simulation time: 0 hr 5 min 49 sec) 
Heartbeat CPU  0 instructions:  166000002 cycles:  154032509 heartbeat IPC: 0.75233 cumulative IPC: 0.76064 (Simulation time: 0 hr 5 min 51 sec) 
Heartbeat CPU  0 instructions:  167000001 cycles:  155471691 heartbeat IPC: 0.69484 cumulative IPC: 0.75956 (Simulation time: 0 hr 5 min 53 sec) 
Heartbeat CPU  0 instructions:  168000000 cycles:  156827302 heartbeat IPC: 0.73767 cumulative IPC: 0.75923 (Simulation time: 0 hr 5 min 55 sec) 
Heartbeat CPU  0 instructions:  169000002 cycles:  158225617 heartbeat IPC: 0.71515 cumulative IPC: 0.75855 (Simulation time: 0 hr 5 min 57 sec) 
Heartbeat CPU  0 instructions:  170000003 cycles:  159594547 heartbeat IPC: 0.73050 cumulative IPC: 0.75814 (Simulation time: 0 hr 5 min 59 sec) 
Heartbeat CPU  0 instructions:  171000000 cycles:  160970582 heartbeat IPC: 0.72672 cumulative IPC: 0.75768 (Simulation time: 0 hr 6 min 1 sec) 
Heartbeat CPU  0 instructions:  172000000 cycles:  162335564 heartbeat IPC: 0.73261 cumulative IPC: 0.75732 (Simulation time: 0 hr 6 min 3 sec) 
Heartbeat CPU  0 instructions:  173000001 cycles:  163712939 heartbeat IPC: 0.72602 cumulative IPC: 0.75687 (Simulation time: 0 hr 6 min 4 sec) 
Heartbeat CPU  0 instructions:  174000001 cycles:  165140508 heartbeat IPC: 0.70049 cumulative IPC: 0.75605 (Simulation time: 0 hr 6 min 6 sec) 
Heartbeat CPU  0 instructions:  175000003 cycles:  166466294 heartbeat IPC: 0.75427 cumulative IPC: 0.75602 (Simulation time: 0 hr 6 min 8 sec) 
Heartbeat CPU  0 instructions:  176000000 cycles:  167874507 heartbeat IPC: 0.71012 cumulative IPC: 0.75538 (Simulation time: 0 hr 6 min 10 sec) 
Heartbeat CPU  0 instructions:  177000003 cycles:  169215710 heartbeat IPC: 0.74560 cumulative IPC: 0.75525 (Simulation time: 0 hr 6 min 12 sec) 
Heartbeat CPU  0 instructions:  178000000 cycles:  170638777 heartbeat IPC: 0.70271 cumulative IPC: 0.75453 (Simulation time: 0 hr 6 min 14 sec) 
Heartbeat CPU  0 instructions:  179000001 cycles:  171964842 heartbeat IPC: 0.75411 cumulative IPC: 0.75452 (Simulation time: 0 hr 6 min 16 sec) 
Heartbeat CPU  0 instructions:  180000000 cycles:  173373831 heartbeat IPC: 0.70973 cumulative IPC: 0.75393 (Simulation time: 0 hr 6 min 18 sec) 
Heartbeat CPU  0 instructions:  181000001 cycles:  174755926 heartbeat IPC: 0.72354 cumulative IPC: 0.75354 (Simulation time: 0 hr 6 min 20 sec) 
Heartbeat CPU  0 instructions:  182000001 cycles:  176150297 heartbeat IPC: 0.71717 cumulative IPC: 0.75307 (Simulation time: 0 hr 6 min 22 sec) 
Heartbeat CPU  0 instructions:  183000002 cycles:  177502950 heartbeat IPC: 0.73929 cumulative IPC: 0.75290 (Simulation time: 0 hr 6 min 24 sec) 
Heartbeat CPU  0 instructions:  184000000 cycles:  178932478 heartbeat IPC: 0.69953 cumulative IPC: 0.75222 (Simulation time: 0 hr 6 min 26 sec) 
Heartbeat CPU  0 instructions:  185000003 cycles:  180281134 heartbeat IPC: 0.74148 cumulative IPC: 0.75209 (Simulation time: 0 hr 6 min 28 sec) 
Heartbeat CPU  0 instructions:  186000000 cycles:  181688168 heartbeat IPC: 0.71071 cumulative IPC: 0.75158 (Simulation time: 0 hr 6 min 30 sec) 
Heartbeat CPU  0 instructions:  187000000 cycles:  183056372 heartbeat IPC: 0.73089 cumulative IPC: 0.75134 (Simulation time: 0 hr 6 min 32 sec) 
Heartbeat CPU  0 instructions:  188000000 cycles:  184455575 heartbeat IPC: 0.71469 cumulative IPC: 0.75090 (Simulation time: 0 hr 6 min 34 sec) 
Heartbeat CPU  0 instructions:  189000001 cycles:  185778414 heartbeat IPC: 0.75595 cumulative IPC: 0.75096 (Simulation time: 0 hr 6 min 36 sec) 
Heartbeat CPU  0 instructions:  190000001 cycles:  187214998 heartbeat IPC: 0.69610 cumulative IPC: 0.75030 (Simulation time: 0 hr 6 min 38 sec) 
Heartbeat CPU  0 instructions:  191000002 cycles:  188592393 heartbeat IPC: 0.72601 cumulative IPC: 0.75002 (Simulation time: 0 hr 6 min 40 sec) 
Heartbeat CPU  0 instructions:  192000000 cycles:  190011475 heartbeat IPC: 0.70468 cumulative IPC: 0.74950 (Simulation time: 0 hr 6 min 42 sec) 
Heartbeat CPU  0 instructions:  193000003 cycles:  191380349 heartbeat IPC: 0.73053 cumulative IPC: 0.74929 (Simulation time: 0 hr 6 min 44 sec) 
Heartbeat CPU  0 instructions:  194000000 cycles:  192800631 heartbeat IPC: 0.70408 cumulative IPC: 0.74878 (Simulation time: 0 hr 6 min 46 sec) 
Heartbeat CPU  0 instructions:  195000000 cycles:  194127412 heartbeat IPC: 0.75370 cumulative IPC: 0.74883 (Simulation time: 0 hr 6 min 48 sec) 
Heartbeat CPU  0 instructions:  196000000 cycles:  195504887 heartbeat IPC: 0.72597 cumulative IPC: 0.74859 (Simulation time: 0 hr 6 min 50 sec) 
Heartbeat CPU  0 instructions:  197000002 cycles:  196895382 heartbeat IPC: 0.71917 cumulative IPC: 0.74827 (Simulation time: 0 hr 6 min 52 sec) 
Heartbeat CPU  0 instructions:  198000001 cycles:  198263935 heartbeat IPC: 0.73070 cumulative IPC: 0.74809 (Simulation time: 0 hr 6 min 53 sec) 
Heartbeat CPU  0 instructions:  199000002 cycles:  199634305 heartbeat IPC: 0.72973 cumulative IPC: 0.74790 (Simulation time: 0 hr 6 min 55 sec) 
Heartbeat CPU  0 instructions:  200000000 cycles:  201019623 heartbeat IPC: 0.72185 cumulative IPC: 0.74763 (Simulation time: 0 hr 6 min 57 sec) 
Finished CPU 0 instructions: 100000001 cycles: 133756531 cumulative IPC: 0.74763 (Simulation time: 0 hr 6 min 57 sec) 

ChampSim completed all CPUs

[ROI Statistics]
Core_0_instructions 100000001
Core_0_cycles 133756531
Core_0_IPC 0.74763

Core_0_branch_prediction_accuracy 99.52414
Core_0_branch_MPKI 0.08716
Core_0_average_ROB_occupancy_at_mispredict 253.76641

Core_0_L1D_total_access 32719611
Core_0_L1D_total_hit 30324151
Core_0_L1D_total_miss 2395460
Core_0_L1D_loads 26597298
Core_0_L1D_load_hit 24201863
Core_0_L1D_load_miss 2395435
Core_0_L1D_RFOs 6122313
Core_0_L1D_RFO_hit 6122288
Core_0_L1D_RFO_miss 25
Core_0_L1D_prefetches 0
Core_0_L1D_prefetch_hit 0
Core_0_L1D_prefetch_miss 0
Core_0_L1D_writebacks 0
Core_0_L1D_writeback_hit 0
Core_0_L1D_writeback_miss 0
Core_0_L1D_prefetch_requested 0
Core_0_L1D_prefetch_issued 0
Core_0_L1D_prefetch_useful 0
Core_0_L1D_prefetch_useless 0
Core_0_L1D_prefetch_late 0
Core_0_L1D_average_miss_latency 63.58825

Core_0_L1I_total_access 21088499
Core_0_L1I_total_hit 21088422
Core_0_L1I_total_miss 77
Core_0_L1I_loads 21088499
Core_0_L1I_load_hit 21088422
Core_0_L1I_load_miss 77
Core_0_L1I_RFOs 0
Core_0_L1I_RFO_hit 0
Core_0_L1I_RFO_miss 0
Core_0_L1I_prefetches 0
Core_0_L1I_prefetch_hit 0
Core_0_L1I_prefetch_miss 0
Core_0_L1I_writebacks 0
Core_0_L1I_writeback_hit 0
Core_0_L1I_writeback_miss 0
Core_0_L1I_prefetch_requested 0
Core_0_L1I_prefetch_issued 0
Core_0_L1I_prefetch_useful 0
Core_0_L1I_prefetch_useless 0
Core_0_L1I_prefetch_late 0
Core_0_L1I_average_miss_latency 223.10390

Core_0_L2C_total_access 6460410
Core_0_L2C_total_hit 4441644
Core_0_L2C_total_miss 2018766
Core_0_L2C_loads 2395510
Core_0_L2C_load_hit 1993224
Core_0_L2C_load_miss 402286
Core_0_L2C_RFOs 25
Core_0_L2C_RFO_hit 0
Core_0_L2C_RFO_miss 25
Core_0_L2C_prefetches 3384592
Core_0_L2C_prefetch_hit 1768251
Core_0_L2C_prefetch_miss 1616341
Core_0_L2C_writebacks 680283
Core_0_L2C_writeback_hit 680169
Core_0_L2C_writeback_miss 114
Core_0_L2C_prefetch_requested 6538713
Core_0_L2C_prefetch_issued 6538665
Core_0_L2C_prefetch_useful 1514612
Core_0_L2C_prefetch_useless 152167
Core_0_L2C_prefetch_late 95647
Core_0_L2C_average_miss_latency 374.36559

Core_0_LLC_total_access 2768112
Core_0_LLC_total_hit 752678
Core_0_LLC_total_miss 2015434
Core_0_LLC_loads 306639
Core_0_LLC_load_hit 6522
Core_0_LLC_load_miss 300117
Core_0_LLC_RFOs 25
Core_0_LLC_RFO_hit 1
Core_0_LLC_RFO_miss 24
Core_0_LLC_prefetches 1785843
Core_0_LLC_prefetch_hit 70666
Core_0_LLC_prefetch_miss 1715177
Core_0_LLC_writebacks 675605
Core_0_LLC_writeback_hit 675489
Core_0_LLC_writeback_miss 116
Core_0_LLC_prefetch_requested 0
Core_0_LLC_prefetch_issued 0
Core_0_LLC_prefetch_useful 5700
Core_0_LLC_prefetch_useless 1689599
Core_0_LLC_prefetch_late 1934
Core_0_LLC_average_miss_latency 400.02748

Core_0_major_page_fault 0
Core_0_minor_page_fault 80857

CPU 0 L2C PC-based stride prefetcher final stats
Channel_0_RQ_row_buffer_hit 497069
Channel_0_RQ_row_buffer_miss 1518249
Channel_0_WQ_row_buffer_hit 254998
Channel_0_WQ_row_buffer_miss 412303
Channel_0_WQ_full 0
Channel_0_dbus_congested 1246782

avg_congested_cycle 10
