*************************************************
   ChampSim Multicore Out-of-Order Simulator
   Last compiled: Dec 25 2023 14:28:30
*************************************************

trace_0 ./test_trace/459.GemsFDTD-1320B.champsimtrace.xz
CPU 0 L1D next line prefetcher
CPU 0 L2C next line prefetcher
Initialize SRRIP state
LLC Next Line Prefetcher
warmup_instructions 100000000
simulation_instructions 100000000
champsim_seed 264

num_cpus 1
cpu_freq 4000
dram_io_freq 2400
page_size 4096
block_size 64
max_read_per_cycle 8
max_fill_per_cycle 1
dram_channels 1
dram_ranks 1
dram_banks 8
dram_rows 65536
dram_columns 128
dram_row_size 8
dram_size 4096
dram_pages 1048576

fetch_width 6
decode_width 6
exec_width 4
lq_width 2
sq_width 2
retire_width 4
scheduler_size 128
branch_mispredict_penalty 20
rob_size 256
lq_size 72
sq_size 56
num_instr_destinations_sparc 4
num_instr_destinations 2
num_instr_sources 4

itlb_set 16
itlb_way 8
itlb_rq_size 16
itlb_wq_size 16
itlb_pq_size 0
itlb_mshr_size 8
itlb_latency 1

dtlb_set 16
dtlb_way 4
dtlb_rq_size 16
dtlb_wq_size 16
dtlb_pq_size 0
dtlb_mshr_size 8
dtlb_latency 1

stlb_set 128
stlb_way 12
stlb_rq_size 32
stlb_wq_size 32
stlb_pq_size 0
stlb_mshr_size 16
stlb_latency 8

l1i_size 32
l1i_set 64
l1i_way 8
l1i_rq_size 64
l1i_wq_size 64
l1i_pq_size 8
l1i_mshr_size 8
l1i_latency 1

l1d_size 32
l1d_set 64
l1d_way 8
l1d_rq_size 64
l1d_wq_size 64
l1d_pq_size 8
l1d_mshr_size 16
l1d_latency 4

l2c_size 512
l2c_set 1024
l2c_way 8
l2c_rq_size 32
l2c_wq_size 32
l2c_pq_size 16
l2c_mshr_size 32
l2c_latency 10

llc_size 2048
llc_set 2048
llc_way 16
llc_rq_size 32
llc_wq_size 32
llc_pq_size 32
llc_mshr_size 64
llc_latency 20

dram_channel_width 8
dram_wq_size 64
dram_rq_size 64
tRP 15
tRCD 15
tCAS 12.5
dram_dbus_turn_around_time 30
dram_write_high_wm 56
dram_write_low_wm 48
min_dram_writes_per_switch 16
dram_mtps 2400
dram_dbus_return_time 13


Heartbeat CPU  0 instructions:    1000000 cycles:     673826 heartbeat IPC: 1.48406 cumulative IPC: 1.48406 (Simulation time: 0 hr 0 min 1 sec) 
Heartbeat CPU  0 instructions:    2000003 cycles:    1346840 heartbeat IPC: 1.48586 cumulative IPC: 1.48496 (Simulation time: 0 hr 0 min 3 sec) 
Heartbeat CPU  0 instructions:    3000002 cycles:    2019996 heartbeat IPC: 1.48554 cumulative IPC: 1.48515 (Simulation time: 0 hr 0 min 5 sec) 
Heartbeat CPU  0 instructions:    4000000 cycles:    2693327 heartbeat IPC: 1.48515 cumulative IPC: 1.48515 (Simulation time: 0 hr 0 min 7 sec) 
Heartbeat CPU  0 instructions:    5000001 cycles:    3366642 heartbeat IPC: 1.48519 cumulative IPC: 1.48516 (Simulation time: 0 hr 0 min 9 sec) 
Heartbeat CPU  0 instructions:    6000001 cycles:    4039572 heartbeat IPC: 1.48604 cumulative IPC: 1.48531 (Simulation time: 0 hr 0 min 11 sec) 
Heartbeat CPU  0 instructions:    7000001 cycles:    4712498 heartbeat IPC: 1.48605 cumulative IPC: 1.48541 (Simulation time: 0 hr 0 min 12 sec) 
Heartbeat CPU  0 instructions:    8000000 cycles:    5385629 heartbeat IPC: 1.48559 cumulative IPC: 1.48543 (Simulation time: 0 hr 0 min 14 sec) 
Heartbeat CPU  0 instructions:    9000003 cycles:    6058855 heartbeat IPC: 1.48539 cumulative IPC: 1.48543 (Simulation time: 0 hr 0 min 16 sec) 
Heartbeat CPU  0 instructions:   10000001 cycles:    6732201 heartbeat IPC: 1.48512 cumulative IPC: 1.48540 (Simulation time: 0 hr 0 min 18 sec) 
Heartbeat CPU  0 instructions:   11000003 cycles:    7405362 heartbeat IPC: 1.48553 cumulative IPC: 1.48541 (Simulation time: 0 hr 0 min 20 sec) 
Heartbeat CPU  0 instructions:   12000000 cycles:    8078344 heartbeat IPC: 1.48592 cumulative IPC: 1.48545 (Simulation time: 0 hr 0 min 22 sec) 
Heartbeat CPU  0 instructions:   13000000 cycles:    8756392 heartbeat IPC: 1.47482 cumulative IPC: 1.48463 (Simulation time: 0 hr 0 min 23 sec) 
Heartbeat CPU  0 instructions:   14000002 cycles:    9435707 heartbeat IPC: 1.47207 cumulative IPC: 1.48373 (Simulation time: 0 hr 0 min 25 sec) 
Heartbeat CPU  0 instructions:   15000000 cycles:   10115059 heartbeat IPC: 1.47199 cumulative IPC: 1.48294 (Simulation time: 0 hr 0 min 27 sec) 
Heartbeat CPU  0 instructions:   16000000 cycles:   10794472 heartbeat IPC: 1.47186 cumulative IPC: 1.48224 (Simulation time: 0 hr 0 min 29 sec) 
Heartbeat CPU  0 instructions:   17000002 cycles:   11474066 heartbeat IPC: 1.47147 cumulative IPC: 1.48160 (Simulation time: 0 hr 0 min 31 sec) 
Heartbeat CPU  0 instructions:   18000003 cycles:   12153514 heartbeat IPC: 1.47178 cumulative IPC: 1.48105 (Simulation time: 0 hr 0 min 32 sec) 
Heartbeat CPU  0 instructions:   19000003 cycles:   12832955 heartbeat IPC: 1.47180 cumulative IPC: 1.48056 (Simulation time: 0 hr 0 min 34 sec) 
Heartbeat CPU  0 instructions:   20000000 cycles:   13512465 heartbeat IPC: 1.47164 cumulative IPC: 1.48011 (Simulation time: 0 hr 0 min 36 sec) 
Heartbeat CPU  0 instructions:   21000002 cycles:   14192020 heartbeat IPC: 1.47155 cumulative IPC: 1.47970 (Simulation time: 0 hr 0 min 38 sec) 
Heartbeat CPU  0 instructions:   22000000 cycles:   14871552 heartbeat IPC: 1.47160 cumulative IPC: 1.47933 (Simulation time: 0 hr 0 min 40 sec) 
Heartbeat CPU  0 instructions:   23000000 cycles:   15550875 heartbeat IPC: 1.47205 cumulative IPC: 1.47902 (Simulation time: 0 hr 0 min 41 sec) 
Heartbeat CPU  0 instructions:   24000000 cycles:   16230263 heartbeat IPC: 1.47191 cumulative IPC: 1.47872 (Simulation time: 0 hr 0 min 43 sec) 
Heartbeat CPU  0 instructions:   25000001 cycles:   16909727 heartbeat IPC: 1.47175 cumulative IPC: 1.47844 (Simulation time: 0 hr 0 min 45 sec) 
Heartbeat CPU  0 instructions:   26000001 cycles:   17589139 heartbeat IPC: 1.47186 cumulative IPC: 1.47818 (Simulation time: 0 hr 0 min 47 sec) 
Heartbeat CPU  0 instructions:   27000001 cycles:   18268512 heartbeat IPC: 1.47195 cumulative IPC: 1.47795 (Simulation time: 0 hr 0 min 49 sec) 
Heartbeat CPU  0 instructions:   28000000 cycles:   18947116 heartbeat IPC: 1.47361 cumulative IPC: 1.47780 (Simulation time: 0 hr 0 min 50 sec) 
Heartbeat CPU  0 instructions:   29000002 cycles:   19624174 heartbeat IPC: 1.47698 cumulative IPC: 1.47777 (Simulation time: 0 hr 0 min 52 sec) 
Heartbeat CPU  0 instructions:   30000000 cycles:   20301038 heartbeat IPC: 1.47740 cumulative IPC: 1.47776 (Simulation time: 0 hr 0 min 54 sec) 
Heartbeat CPU  0 instructions:   31000000 cycles:   20977907 heartbeat IPC: 1.47739 cumulative IPC: 1.47775 (Simulation time: 0 hr 0 min 56 sec) 
Heartbeat CPU  0 instructions:   32000000 cycles:   21654821 heartbeat IPC: 1.47729 cumulative IPC: 1.47773 (Simulation time: 0 hr 0 min 58 sec) 
Heartbeat CPU  0 instructions:   33000002 cycles:   22331929 heartbeat IPC: 1.47687 cumulative IPC: 1.47771 (Simulation time: 0 hr 0 min 59 sec) 
Heartbeat CPU  0 instructions:   34000000 cycles:   23008892 heartbeat IPC: 1.47718 cumulative IPC: 1.47769 (Simulation time: 0 hr 1 min 1 sec) 
Heartbeat CPU  0 instructions:   35000002 cycles:   23685831 heartbeat IPC: 1.47724 cumulative IPC: 1.47768 (Simulation time: 0 hr 1 min 3 sec) 
Heartbeat CPU  0 instructions:   36000000 cycles:   24362682 heartbeat IPC: 1.47743 cumulative IPC: 1.47767 (Simulation time: 0 hr 1 min 5 sec) 
Heartbeat CPU  0 instructions:   37000000 cycles:   25039752 heartbeat IPC: 1.47695 cumulative IPC: 1.47765 (Simulation time: 0 hr 1 min 7 sec) 
Heartbeat CPU  0 instructions:   38000000 cycles:   25716687 heartbeat IPC: 1.47725 cumulative IPC: 1.47764 (Simulation time: 0 hr 1 min 9 sec) 
Heartbeat CPU  0 instructions:   39000002 cycles:   26393678 heartbeat IPC: 1.47713 cumulative IPC: 1.47763 (Simulation time: 0 hr 1 min 10 sec) 
Heartbeat CPU  0 instructions:   40000000 cycles:   27070754 heartbeat IPC: 1.47694 cumulative IPC: 1.47761 (Simulation time: 0 hr 1 min 12 sec) 
Heartbeat CPU  0 instructions:   41000000 cycles:   27747877 heartbeat IPC: 1.47684 cumulative IPC: 1.47759 (Simulation time: 0 hr 1 min 14 sec) 
Heartbeat CPU  0 instructions:   42000002 cycles:   28424904 heartbeat IPC: 1.47705 cumulative IPC: 1.47758 (Simulation time: 0 hr 1 min 16 sec) 
Heartbeat CPU  0 instructions:   43000002 cycles:   29101804 heartbeat IPC: 1.47732 cumulative IPC: 1.47757 (Simulation time: 0 hr 1 min 18 sec) 
Heartbeat CPU  0 instructions:   44000000 cycles:   29768350 heartbeat IPC: 1.50027 cumulative IPC: 1.47808 (Simulation time: 0 hr 1 min 19 sec) 
Heartbeat CPU  0 instructions:   45000003 cycles:   30434887 heartbeat IPC: 1.50030 cumulative IPC: 1.47857 (Simulation time: 0 hr 1 min 21 sec) 
Heartbeat CPU  0 instructions:   46000001 cycles:   31101184 heartbeat IPC: 1.50083 cumulative IPC: 1.47904 (Simulation time: 0 hr 1 min 23 sec) 
Heartbeat CPU  0 instructions:   47000000 cycles:   31767505 heartbeat IPC: 1.50078 cumulative IPC: 1.47950 (Simulation time: 0 hr 1 min 25 sec) 
Heartbeat CPU  0 instructions:   48000000 cycles:   32433729 heartbeat IPC: 1.50100 cumulative IPC: 1.47994 (Simulation time: 0 hr 1 min 27 sec) 
Heartbeat CPU  0 instructions:   49000000 cycles:   33099983 heartbeat IPC: 1.50093 cumulative IPC: 1.48036 (Simulation time: 0 hr 1 min 29 sec) 
Heartbeat CPU  0 instructions:   50000003 cycles:   33766527 heartbeat IPC: 1.50028 cumulative IPC: 1.48076 (Simulation time: 0 hr 1 min 31 sec) 
Heartbeat CPU  0 instructions:   51000003 cycles:   34432916 heartbeat IPC: 1.50063 cumulative IPC: 1.48114 (Simulation time: 0 hr 1 min 32 sec) 
Heartbeat CPU  0 instructions:   52000000 cycles:   35099398 heartbeat IPC: 1.50041 cumulative IPC: 1.48151 (Simulation time: 0 hr 1 min 34 sec) 
Heartbeat CPU  0 instructions:   53000003 cycles:   35765712 heartbeat IPC: 1.50080 cumulative IPC: 1.48187 (Simulation time: 0 hr 1 min 36 sec) 
Heartbeat CPU  0 instructions:   54000000 cycles:   36431857 heartbeat IPC: 1.50117 cumulative IPC: 1.48222 (Simulation time: 0 hr 1 min 38 sec) 
Heartbeat CPU  0 instructions:   55000000 cycles:   37098231 heartbeat IPC: 1.50066 cumulative IPC: 1.48255 (Simulation time: 0 hr 1 min 40 sec) 
Heartbeat CPU  0 instructions:   56000000 cycles:   37760721 heartbeat IPC: 1.50946 cumulative IPC: 1.48302 (Simulation time: 0 hr 1 min 42 sec) 
Heartbeat CPU  0 instructions:   57000003 cycles:   38422514 heartbeat IPC: 1.51105 cumulative IPC: 1.48351 (Simulation time: 0 hr 1 min 43 sec) 
Heartbeat CPU  0 instructions:   58000000 cycles:   39084499 heartbeat IPC: 1.51060 cumulative IPC: 1.48396 (Simulation time: 0 hr 1 min 45 sec) 
Heartbeat CPU  0 instructions:   59000000 cycles:   39746482 heartbeat IPC: 1.51061 cumulative IPC: 1.48441 (Simulation time: 0 hr 1 min 47 sec) 
Heartbeat CPU  0 instructions:   60000000 cycles:   40408452 heartbeat IPC: 1.51064 cumulative IPC: 1.48484 (Simulation time: 0 hr 1 min 49 sec) 
Heartbeat CPU  0 instructions:   61000001 cycles:   41070983 heartbeat IPC: 1.50936 cumulative IPC: 1.48523 (Simulation time: 0 hr 1 min 51 sec) 
Heartbeat CPU  0 instructions:   62000000 cycles:   41733191 heartbeat IPC: 1.51010 cumulative IPC: 1.48563 (Simulation time: 0 hr 1 min 53 sec) 
Heartbeat CPU  0 instructions:   63000001 cycles:   42395208 heartbeat IPC: 1.51054 cumulative IPC: 1.48602 (Simulation time: 0 hr 1 min 55 sec) 
Heartbeat CPU  0 instructions:   64000000 cycles:   43057387 heartbeat IPC: 1.51016 cumulative IPC: 1.48639 (Simulation time: 0 hr 1 min 56 sec) 
Heartbeat CPU  0 instructions:   65000003 cycles:   43719454 heartbeat IPC: 1.51043 cumulative IPC: 1.48675 (Simulation time: 0 hr 1 min 58 sec) 
Heartbeat CPU  0 instructions:   66000000 cycles:   44381198 heartbeat IPC: 1.51115 cumulative IPC: 1.48712 (Simulation time: 0 hr 2 min 0 sec) 
Heartbeat CPU  0 instructions:   67000002 cycles:   45043450 heartbeat IPC: 1.51000 cumulative IPC: 1.48745 (Simulation time: 0 hr 2 min 2 sec) 
Heartbeat CPU  0 instructions:   68000000 cycles:   45713688 heartbeat IPC: 1.49200 cumulative IPC: 1.48752 (Simulation time: 0 hr 2 min 4 sec) 
Heartbeat CPU  0 instructions:   69000002 cycles:   46384523 heartbeat IPC: 1.49068 cumulative IPC: 1.48757 (Simulation time: 0 hr 2 min 6 sec) 
Heartbeat CPU  0 instructions:   70000001 cycles:   47055657 heartbeat IPC: 1.49001 cumulative IPC: 1.48760 (Simulation time: 0 hr 2 min 7 sec) 
Heartbeat CPU  0 instructions:   71000002 cycles:   47726322 heartbeat IPC: 1.49106 cumulative IPC: 1.48765 (Simulation time: 0 hr 2 min 9 sec) 
Heartbeat CPU  0 instructions:   72000000 cycles:   48397300 heartbeat IPC: 1.49036 cumulative IPC: 1.48769 (Simulation time: 0 hr 2 min 11 sec) 
Heartbeat CPU  0 instructions:   73000000 cycles:   49068270 heartbeat IPC: 1.49038 cumulative IPC: 1.48772 (Simulation time: 0 hr 2 min 13 sec) 
Heartbeat CPU  0 instructions:   74000000 cycles:   49738903 heartbeat IPC: 1.49113 cumulative IPC: 1.48777 (Simulation time: 0 hr 2 min 15 sec) 
Heartbeat CPU  0 instructions:   75000001 cycles:   50410090 heartbeat IPC: 1.48990 cumulative IPC: 1.48780 (Simulation time: 0 hr 2 min 17 sec) 
Heartbeat CPU  0 instructions:   76000000 cycles:   51080607 heartbeat IPC: 1.49138 cumulative IPC: 1.48784 (Simulation time: 0 hr 2 min 18 sec) 
Heartbeat CPU  0 instructions:   77000000 cycles:   51751747 heartbeat IPC: 1.49000 cumulative IPC: 1.48787 (Simulation time: 0 hr 2 min 20 sec) 
Heartbeat CPU  0 instructions:   78000003 cycles:   52422528 heartbeat IPC: 1.49080 cumulative IPC: 1.48791 (Simulation time: 0 hr 2 min 22 sec) 
Heartbeat CPU  0 instructions:   79000002 cycles:   53093485 heartbeat IPC: 1.49041 cumulative IPC: 1.48794 (Simulation time: 0 hr 2 min 24 sec) 
Heartbeat CPU  0 instructions:   80000000 cycles:   53767002 heartbeat IPC: 1.48474 cumulative IPC: 1.48790 (Simulation time: 0 hr 2 min 26 sec) 
Heartbeat CPU  0 instructions:   81000003 cycles:   54441616 heartbeat IPC: 1.48233 cumulative IPC: 1.48783 (Simulation time: 0 hr 2 min 27 sec) 
Heartbeat CPU  0 instructions:   82000001 cycles:   55115625 heartbeat IPC: 1.48366 cumulative IPC: 1.48778 (Simulation time: 0 hr 2 min 29 sec) 
Heartbeat CPU  0 instructions:   83000002 cycles:   55789994 heartbeat IPC: 1.48287 cumulative IPC: 1.48772 (Simulation time: 0 hr 2 min 31 sec) 
Heartbeat CPU  0 instructions:   84000000 cycles:   56464028 heartbeat IPC: 1.48360 cumulative IPC: 1.48767 (Simulation time: 0 hr 2 min 33 sec) 
Heartbeat CPU  0 instructions:   85000000 cycles:   57138578 heartbeat IPC: 1.48247 cumulative IPC: 1.48761 (Simulation time: 0 hr 2 min 35 sec) 
Heartbeat CPU  0 instructions:   86000001 cycles:   57812910 heartbeat IPC: 1.48295 cumulative IPC: 1.48756 (Simulation time: 0 hr 2 min 37 sec) 
Heartbeat CPU  0 instructions:   87000000 cycles:   58487348 heartbeat IPC: 1.48271 cumulative IPC: 1.48750 (Simulation time: 0 hr 2 min 39 sec) 
Heartbeat CPU  0 instructions:   88000000 cycles:   59161808 heartbeat IPC: 1.48267 cumulative IPC: 1.48745 (Simulation time: 0 hr 2 min 40 sec) 
Heartbeat CPU  0 instructions:   89000002 cycles:   59836119 heartbeat IPC: 1.48300 cumulative IPC: 1.48740 (Simulation time: 0 hr 2 min 42 sec) 
Heartbeat CPU  0 instructions:   90000001 cycles:   60510291 heartbeat IPC: 1.48330 cumulative IPC: 1.48735 (Simulation time: 0 hr 2 min 44 sec) 
Heartbeat CPU  0 instructions:   91000000 cycles:   61184501 heartbeat IPC: 1.48322 cumulative IPC: 1.48730 (Simulation time: 0 hr 2 min 46 sec) 
Heartbeat CPU  0 instructions:   92000000 cycles:   61861735 heartbeat IPC: 1.47659 cumulative IPC: 1.48719 (Simulation time: 0 hr 2 min 48 sec) 
Heartbeat CPU  0 instructions:   93000001 cycles:   62541064 heartbeat IPC: 1.47204 cumulative IPC: 1.48702 (Simulation time: 0 hr 2 min 50 sec) 
Heartbeat CPU  0 instructions:   94000001 cycles:   63220346 heartbeat IPC: 1.47214 cumulative IPC: 1.48686 (Simulation time: 0 hr 2 min 51 sec) 
Heartbeat CPU  0 instructions:   95000001 cycles:   63899686 heartbeat IPC: 1.47202 cumulative IPC: 1.48671 (Simulation time: 0 hr 2 min 53 sec) 
Heartbeat CPU  0 instructions:   96000000 cycles:   64579024 heartbeat IPC: 1.47202 cumulative IPC: 1.48655 (Simulation time: 0 hr 2 min 55 sec) 
Heartbeat CPU  0 instructions:   97000000 cycles:   65258375 heartbeat IPC: 1.47199 cumulative IPC: 1.48640 (Simulation time: 0 hr 2 min 57 sec) 
Heartbeat CPU  0 instructions:   98000000 cycles:   65937682 heartbeat IPC: 1.47209 cumulative IPC: 1.48625 (Simulation time: 0 hr 2 min 59 sec) 
Heartbeat CPU  0 instructions:   99000000 cycles:   66617022 heartbeat IPC: 1.47202 cumulative IPC: 1.48611 (Simulation time: 0 hr 3 min 1 sec) 
Heartbeat CPU  0 instructions:  100000000 cycles:   67296358 heartbeat IPC: 1.47203 cumulative IPC: 1.48596 (Simulation time: 0 hr 3 min 2 sec) 

Warmup complete CPU  0 instructions:  100000001 cycles:   67296359 (Simulation time: 0 hr 3 min 2 sec) 

Heartbeat CPU  0 instructions:  101000000 cycles:   68489437 heartbeat IPC: 0.83817 cumulative IPC: 0.83817 (Simulation time: 0 hr 3 min 4 sec) 
Heartbeat CPU  0 instructions:  102000001 cycles:   69684129 heartbeat IPC: 0.83704 cumulative IPC: 0.83760 (Simulation time: 0 hr 3 min 6 sec) 
Heartbeat CPU  0 instructions:  103000003 cycles:   70878834 heartbeat IPC: 0.83703 cumulative IPC: 0.83741 (Simulation time: 0 hr 3 min 9 sec) 
Heartbeat CPU  0 instructions:  104000000 cycles:   72072622 heartbeat IPC: 0.83767 cumulative IPC: 0.83747 (Simulation time: 0 hr 3 min 11 sec) 
Heartbeat CPU  0 instructions:  105000001 cycles:   73268086 heartbeat IPC: 0.83650 cumulative IPC: 0.83728 (Simulation time: 0 hr 3 min 13 sec) 
Heartbeat CPU  0 instructions:  106000002 cycles:   74462848 heartbeat IPC: 0.83699 cumulative IPC: 0.83723 (Simulation time: 0 hr 3 min 15 sec) 
Heartbeat CPU  0 instructions:  107000002 cycles:   75905381 heartbeat IPC: 0.69323 cumulative IPC: 0.81310 (Simulation time: 0 hr 3 min 17 sec) 
Heartbeat CPU  0 instructions:  108000000 cycles:   77111469 heartbeat IPC: 0.82913 cumulative IPC: 0.81507 (Simulation time: 0 hr 3 min 19 sec) 
Heartbeat CPU  0 instructions:  109000000 cycles:   78313465 heartbeat IPC: 0.83195 cumulative IPC: 0.81691 (Simulation time: 0 hr 3 min 21 sec) 
Heartbeat CPU  0 instructions:  110000002 cycles:   79516301 heartbeat IPC: 0.83137 cumulative IPC: 0.81833 (Simulation time: 0 hr 3 min 23 sec) 
Heartbeat CPU  0 instructions:  111000000 cycles:   80718245 heartbeat IPC: 0.83198 cumulative IPC: 0.81956 (Simulation time: 0 hr 3 min 25 sec) 
Heartbeat CPU  0 instructions:  112000000 cycles:   81919294 heartbeat IPC: 0.83261 cumulative IPC: 0.82063 (Simulation time: 0 hr 3 min 27 sec) 
Heartbeat CPU  0 instructions:  113000000 cycles:   83125239 heartbeat IPC: 0.82923 cumulative IPC: 0.82128 (Simulation time: 0 hr 3 min 30 sec) 
Heartbeat CPU  0 instructions:  114000002 cycles:   84328962 heartbeat IPC: 0.83076 cumulative IPC: 0.82195 (Simulation time: 0 hr 3 min 32 sec) 
Heartbeat CPU  0 instructions:  115000002 cycles:   85532995 heartbeat IPC: 0.83054 cumulative IPC: 0.82252 (Simulation time: 0 hr 3 min 34 sec) 
Heartbeat CPU  0 instructions:  116000000 cycles:   86737533 heartbeat IPC: 0.83019 cumulative IPC: 0.82300 (Simulation time: 0 hr 3 min 36 sec) 
Heartbeat CPU  0 instructions:  117000002 cycles:   87944436 heartbeat IPC: 0.82857 cumulative IPC: 0.82332 (Simulation time: 0 hr 3 min 38 sec) 
Heartbeat CPU  0 instructions:  118000000 cycles:   89150389 heartbeat IPC: 0.82922 cumulative IPC: 0.82365 (Simulation time: 0 hr 3 min 40 sec) 
Heartbeat CPU  0 instructions:  119000002 cycles:   90357986 heartbeat IPC: 0.82809 cumulative IPC: 0.82388 (Simulation time: 0 hr 3 min 42 sec) 
Heartbeat CPU  0 instructions:  120000000 cycles:   91556775 heartbeat IPC: 0.83417 cumulative IPC: 0.82439 (Simulation time: 0 hr 3 min 44 sec) 
Heartbeat CPU  0 instructions:  121000002 cycles:   92756119 heartbeat IPC: 0.83379 cumulative IPC: 0.82483 (Simulation time: 0 hr 3 min 46 sec) 
Heartbeat CPU  0 instructions:  122000002 cycles:   93955410 heartbeat IPC: 0.83383 cumulative IPC: 0.82524 (Simulation time: 0 hr 3 min 48 sec) 
Heartbeat CPU  0 instructions:  123000003 cycles:   94739642 heartbeat IPC: 1.27513 cumulative IPC: 0.83809 (Simulation time: 0 hr 3 min 50 sec) 
Heartbeat CPU  0 instructions:  124000000 cycles:   95482770 heartbeat IPC: 1.34566 cumulative IPC: 0.85147 (Simulation time: 0 hr 3 min 52 sec) 
Heartbeat CPU  0 instructions:  125000000 cycles:   96431572 heartbeat IPC: 1.05396 cumulative IPC: 0.85807 (Simulation time: 0 hr 3 min 54 sec) 
Heartbeat CPU  0 instructions:  126000000 cycles:   97463511 heartbeat IPC: 0.96905 cumulative IPC: 0.86186 (Simulation time: 0 hr 3 min 56 sec) 
Heartbeat CPU  0 instructions:  127000001 cycles:   98501589 heartbeat IPC: 0.96332 cumulative IPC: 0.86524 (Simulation time: 0 hr 3 min 57 sec) 
Heartbeat CPU  0 instructions:  128000000 cycles:   99575528 heartbeat IPC: 0.93115 cumulative IPC: 0.86743 (Simulation time: 0 hr 3 min 59 sec) 
Heartbeat CPU  0 instructions:  129000002 cycles:  100660174 heartbeat IPC: 0.92196 cumulative IPC: 0.86921 (Simulation time: 0 hr 4 min 1 sec) 
Heartbeat CPU  0 instructions:  130000002 cycles:  101710376 heartbeat IPC: 0.95220 cumulative IPC: 0.87174 (Simulation time: 0 hr 4 min 3 sec) 
Heartbeat CPU  0 instructions:  131000003 cycles:  102780684 heartbeat IPC: 0.93431 cumulative IPC: 0.87363 (Simulation time: 0 hr 4 min 4 sec) 
Heartbeat CPU  0 instructions:  132000000 cycles:  103835696 heartbeat IPC: 0.94785 cumulative IPC: 0.87577 (Simulation time: 0 hr 4 min 6 sec) 
Heartbeat CPU  0 instructions:  133000000 cycles:  104895306 heartbeat IPC: 0.94374 cumulative IPC: 0.87768 (Simulation time: 0 hr 4 min 8 sec) 
Heartbeat CPU  0 instructions:  134000001 cycles:  105959321 heartbeat IPC: 0.93984 cumulative IPC: 0.87939 (Simulation time: 0 hr 4 min 9 sec) 
Heartbeat CPU  0 instructions:  135000001 cycles:  107020769 heartbeat IPC: 0.94211 cumulative IPC: 0.88107 (Simulation time: 0 hr 4 min 11 sec) 
Heartbeat CPU  0 instructions:  136000000 cycles:  108073434 heartbeat IPC: 0.94997 cumulative IPC: 0.88285 (Simulation time: 0 hr 4 min 13 sec) 
Heartbeat CPU  0 instructions:  137000002 cycles:  109135922 heartbeat IPC: 0.94119 cumulative IPC: 0.88433 (Simulation time: 0 hr 4 min 14 sec) 
Heartbeat CPU  0 instructions:  138000003 cycles:  110198766 heartbeat IPC: 0.94087 cumulative IPC: 0.88573 (Simulation time: 0 hr 4 min 16 sec) 
Heartbeat CPU  0 instructions:  139000003 cycles:  111272579 heartbeat IPC: 0.93126 cumulative IPC: 0.88684 (Simulation time: 0 hr 4 min 18 sec) 
Heartbeat CPU  0 instructions:  140000000 cycles:  112334309 heartbeat IPC: 0.94186 cumulative IPC: 0.88814 (Simulation time: 0 hr 4 min 19 sec) 
Heartbeat CPU  0 instructions:  141000000 cycles:  113385094 heartbeat IPC: 0.95167 cumulative IPC: 0.88959 (Simulation time: 0 hr 4 min 21 sec) 
Heartbeat CPU  0 instructions:  142000001 cycles:  114427136 heartbeat IPC: 0.95966 cumulative IPC: 0.89114 (Simulation time: 0 hr 4 min 23 sec) 
Heartbeat CPU  0 instructions:  143000002 cycles:  115487996 heartbeat IPC: 0.94263 cumulative IPC: 0.89227 (Simulation time: 0 hr 4 min 24 sec) 
Heartbeat CPU  0 instructions:  144000000 cycles:  116568822 heartbeat IPC: 0.92522 cumulative IPC: 0.89299 (Simulation time: 0 hr 4 min 26 sec) 
Heartbeat CPU  0 instructions:  145000002 cycles:  117631145 heartbeat IPC: 0.94134 cumulative IPC: 0.89401 (Simulation time: 0 hr 4 min 28 sec) 
Heartbeat CPU  0 instructions:  146000003 cycles:  118702030 heartbeat IPC: 0.93381 cumulative IPC: 0.89484 (Simulation time: 0 hr 4 min 29 sec) 
Heartbeat CPU  0 instructions:  147000003 cycles:  119772112 heartbeat IPC: 0.93451 cumulative IPC: 0.89565 (Simulation time: 0 hr 4 min 31 sec) 
Heartbeat CPU  0 instructions:  148000000 cycles:  120896526 heartbeat IPC: 0.88935 cumulative IPC: 0.89552 (Simulation time: 0 hr 4 min 33 sec) 
Heartbeat CPU  0 instructions:  149000000 cycles:  122133724 heartbeat IPC: 0.80828 cumulative IPC: 0.89355 (Simulation time: 0 hr 4 min 34 sec) 
Heartbeat CPU  0 instructions:  150000001 cycles:  123414816 heartbeat IPC: 0.78058 cumulative IPC: 0.89097 (Simulation time: 0 hr 4 min 36 sec) 
Heartbeat CPU  0 instructions:  151000001 cycles:  124617364 heartbeat IPC: 0.83157 cumulative IPC: 0.88973 (Simulation time: 0 hr 4 min 38 sec) 
Heartbeat CPU  0 instructions:  152000000 cycles:  125793225 heartbeat IPC: 0.85044 cumulative IPC: 0.88894 (Simulation time: 0 hr 4 min 40 sec) 
Heartbeat CPU  0 instructions:  153000002 cycles:  127044625 heartbeat IPC: 0.79911 cumulative IPC: 0.88706 (Simulation time: 0 hr 4 min 41 sec) 
Heartbeat CPU  0 instructions:  154000003 cycles:  128247964 heartbeat IPC: 0.83102 cumulative IPC: 0.88595 (Simulation time: 0 hr 4 min 43 sec) 
Heartbeat CPU  0 instructions:  155000000 cycles:  129481377 heartbeat IPC: 0.81076 cumulative IPC: 0.88446 (Simulation time: 0 hr 4 min 45 sec) 
Heartbeat CPU  0 instructions:  156000000 cycles:  130708836 heartbeat IPC: 0.81469 cumulative IPC: 0.88311 (Simulation time: 0 hr 4 min 47 sec) 
Heartbeat CPU  0 instructions:  157000000 cycles:  131967135 heartbeat IPC: 0.79472 cumulative IPC: 0.88139 (Simulation time: 0 hr 4 min 48 sec) 
Heartbeat CPU  0 instructions:  158000001 cycles:  133174331 heartbeat IPC: 0.82837 cumulative IPC: 0.88042 (Simulation time: 0 hr 4 min 50 sec) 
Heartbeat CPU  0 instructions:  159000001 cycles:  134438703 heartbeat IPC: 0.79091 cumulative IPC: 0.87873 (Simulation time: 0 hr 4 min 52 sec) 
Heartbeat CPU  0 instructions:  160000000 cycles:  135656108 heartbeat IPC: 0.82142 cumulative IPC: 0.87771 (Simulation time: 0 hr 4 min 54 sec) 
Heartbeat CPU  0 instructions:  161000002 cycles:  136915837 heartbeat IPC: 0.79382 cumulative IPC: 0.87619 (Simulation time: 0 hr 4 min 55 sec) 
Heartbeat CPU  0 instructions:  162000003 cycles:  138147467 heartbeat IPC: 0.81193 cumulative IPC: 0.87507 (Simulation time: 0 hr 4 min 57 sec) 
Heartbeat CPU  0 instructions:  163000003 cycles:  139406971 heartbeat IPC: 0.79396 cumulative IPC: 0.87366 (Simulation time: 0 hr 4 min 59 sec) 
Heartbeat CPU  0 instructions:  164000000 cycles:  140636167 heartbeat IPC: 0.81354 cumulative IPC: 0.87265 (Simulation time: 0 hr 5 min 1 sec) 
Heartbeat CPU  0 instructions:  165000000 cycles:  141879489 heartbeat IPC: 0.80430 cumulative IPC: 0.87151 (Simulation time: 0 hr 5 min 2 sec) 
Heartbeat CPU  0 instructions:  166000002 cycles:  143090179 heartbeat IPC: 0.82598 cumulative IPC: 0.87078 (Simulation time: 0 hr 5 min 4 sec) 
Heartbeat CPU  0 instructions:  167000001 cycles:  144333368 heartbeat IPC: 0.80438 cumulative IPC: 0.86971 (Simulation time: 0 hr 5 min 6 sec) 
Heartbeat CPU  0 instructions:  168000000 cycles:  145573906 heartbeat IPC: 0.80610 cumulative IPC: 0.86870 (Simulation time: 0 hr 5 min 8 sec) 
Heartbeat CPU  0 instructions:  169000002 cycles:  146798464 heartbeat IPC: 0.81662 cumulative IPC: 0.86790 (Simulation time: 0 hr 5 min 9 sec) 
Heartbeat CPU  0 instructions:  170000003 cycles:  148025452 heartbeat IPC: 0.81500 cumulative IPC: 0.86710 (Simulation time: 0 hr 5 min 11 sec) 
Heartbeat CPU  0 instructions:  171000000 cycles:  149242199 heartbeat IPC: 0.82186 cumulative IPC: 0.86643 (Simulation time: 0 hr 5 min 13 sec) 
Heartbeat CPU  0 instructions:  172000000 cycles:  150463752 heartbeat IPC: 0.81863 cumulative IPC: 0.86572 (Simulation time: 0 hr 5 min 15 sec) 
Heartbeat CPU  0 instructions:  173000002 cycles:  151680059 heartbeat IPC: 0.82216 cumulative IPC: 0.86510 (Simulation time: 0 hr 5 min 16 sec) 
Heartbeat CPU  0 instructions:  174000001 cycles:  152940791 heartbeat IPC: 0.79319 cumulative IPC: 0.86404 (Simulation time: 0 hr 5 min 18 sec) 
Heartbeat CPU  0 instructions:  175000003 cycles:  154124967 heartbeat IPC: 0.84447 cumulative IPC: 0.86377 (Simulation time: 0 hr 5 min 20 sec) 
Heartbeat CPU  0 instructions:  176000000 cycles:  155358053 heartbeat IPC: 0.81097 cumulative IPC: 0.86303 (Simulation time: 0 hr 5 min 22 sec) 
Heartbeat CPU  0 instructions:  177000003 cycles:  156560303 heartbeat IPC: 0.83178 cumulative IPC: 0.86261 (Simulation time: 0 hr 5 min 23 sec) 
Heartbeat CPU  0 instructions:  178000003 cycles:  157829743 heartbeat IPC: 0.78775 cumulative IPC: 0.86156 (Simulation time: 0 hr 5 min 25 sec) 
Heartbeat CPU  0 instructions:  179000000 cycles:  159016037 heartbeat IPC: 0.84296 cumulative IPC: 0.86132 (Simulation time: 0 hr 5 min 27 sec) 
Heartbeat CPU  0 instructions:  180000000 cycles:  160259163 heartbeat IPC: 0.80442 cumulative IPC: 0.86056 (Simulation time: 0 hr 5 min 28 sec) 
Heartbeat CPU  0 instructions:  181000001 cycles:  161485925 heartbeat IPC: 0.81515 cumulative IPC: 0.85997 (Simulation time: 0 hr 5 min 30 sec) 
Heartbeat CPU  0 instructions:  182000001 cycles:  162733050 heartbeat IPC: 0.80184 cumulative IPC: 0.85921 (Simulation time: 0 hr 5 min 32 sec) 
Heartbeat CPU  0 instructions:  183000002 cycles:  163941502 heartbeat IPC: 0.82751 cumulative IPC: 0.85881 (Simulation time: 0 hr 5 min 34 sec) 
Heartbeat CPU  0 instructions:  184000000 cycles:  165212160 heartbeat IPC: 0.78699 cumulative IPC: 0.85788 (Simulation time: 0 hr 5 min 35 sec) 
Heartbeat CPU  0 instructions:  185000000 cycles:  166422648 heartbeat IPC: 0.82611 cumulative IPC: 0.85749 (Simulation time: 0 hr 5 min 37 sec) 
Heartbeat CPU  0 instructions:  186000003 cycles:  167654295 heartbeat IPC: 0.81192 cumulative IPC: 0.85693 (Simulation time: 0 hr 5 min 39 sec) 
Heartbeat CPU  0 instructions:  187000000 cycles:  168873830 heartbeat IPC: 0.81998 cumulative IPC: 0.85649 (Simulation time: 0 hr 5 min 41 sec) 
Heartbeat CPU  0 instructions:  188000000 cycles:  170151548 heartbeat IPC: 0.78265 cumulative IPC: 0.85557 (Simulation time: 0 hr 5 min 42 sec) 
Heartbeat CPU  0 instructions:  189000001 cycles:  171341598 heartbeat IPC: 0.84030 cumulative IPC: 0.85540 (Simulation time: 0 hr 5 min 44 sec) 
Heartbeat CPU  0 instructions:  190000001 cycles:  172603126 heartbeat IPC: 0.79269 cumulative IPC: 0.85465 (Simulation time: 0 hr 5 min 46 sec) 
Heartbeat CPU  0 instructions:  191000002 cycles:  173837369 heartbeat IPC: 0.81021 cumulative IPC: 0.85413 (Simulation time: 0 hr 5 min 48 sec) 
Heartbeat CPU  0 instructions:  192000000 cycles:  175081350 heartbeat IPC: 0.80387 cumulative IPC: 0.85355 (Simulation time: 0 hr 5 min 49 sec) 
Heartbeat CPU  0 instructions:  193000003 cycles:  176293939 heartbeat IPC: 0.82468 cumulative IPC: 0.85323 (Simulation time: 0 hr 5 min 51 sec) 
Heartbeat CPU  0 instructions:  194000003 cycles:  177569917 heartbeat IPC: 0.78371 cumulative IPC: 0.85243 (Simulation time: 0 hr 5 min 53 sec) 
Heartbeat CPU  0 instructions:  195000001 cycles:  178750079 heartbeat IPC: 0.84734 cumulative IPC: 0.85237 (Simulation time: 0 hr 5 min 55 sec) 
Heartbeat CPU  0 instructions:  196000000 cycles:  179977290 heartbeat IPC: 0.81485 cumulative IPC: 0.85196 (Simulation time: 0 hr 5 min 56 sec) 
Heartbeat CPU  0 instructions:  197000001 cycles:  181203606 heartbeat IPC: 0.81545 cumulative IPC: 0.85157 (Simulation time: 0 hr 5 min 58 sec) 
Heartbeat CPU  0 instructions:  198000001 cycles:  182460706 heartbeat IPC: 0.79548 cumulative IPC: 0.85096 (Simulation time: 0 hr 6 min 0 sec) 
Heartbeat CPU  0 instructions:  199000002 cycles:  183679808 heartbeat IPC: 0.82028 cumulative IPC: 0.85064 (Simulation time: 0 hr 6 min 2 sec) 
Heartbeat CPU  0 instructions:  200000000 cycles:  184906625 heartbeat IPC: 0.81512 cumulative IPC: 0.85027 (Simulation time: 0 hr 6 min 3 sec) 
Finished CPU 0 instructions: 100000001 cycles: 117610274 cumulative IPC: 0.85027 (Simulation time: 0 hr 6 min 3 sec) 

ChampSim completed all CPUs

[ROI Statistics]
Core_0_instructions 100000001
Core_0_cycles 117610274
Core_0_IPC 0.85027

Core_0_branch_prediction_accuracy 99.52414
Core_0_branch_MPKI 0.08716
Core_0_average_ROB_occupancy_at_mispredict 253.78419

Core_0_L1D_total_access 56499093
Core_0_L1D_total_hit 53474716
Core_0_L1D_total_miss 3024377
Core_0_L1D_loads 27298442
Core_0_L1D_load_hit 26429191
Core_0_L1D_load_miss 869251
Core_0_L1D_RFOs 6122319
Core_0_L1D_RFO_hit 6122298
Core_0_L1D_RFO_miss 21
Core_0_L1D_prefetches 23078332
Core_0_L1D_prefetch_hit 20923227
Core_0_L1D_prefetch_miss 2155105
Core_0_L1D_writebacks 0
Core_0_L1D_writeback_hit 0
Core_0_L1D_writeback_miss 0
Core_0_L1D_prefetch_requested 80568987
Core_0_L1D_prefetch_issued 70091050
Core_0_L1D_prefetch_useful 1528128
Core_0_L1D_prefetch_useless 3516183
Core_0_L1D_prefetch_late 192914
Core_0_L1D_average_miss_latency 8908847.68372

Core_0_L1I_total_access 21018824
Core_0_L1I_total_hit 21018747
Core_0_L1I_total_miss 77
Core_0_L1I_loads 21018824
Core_0_L1I_load_hit 21018747
Core_0_L1I_load_miss 77
Core_0_L1I_RFOs 0
Core_0_L1I_RFO_hit 0
Core_0_L1I_RFO_miss 0
Core_0_L1I_prefetches 0
Core_0_L1I_prefetch_hit 0
Core_0_L1I_prefetch_miss 0
Core_0_L1I_writebacks 0
Core_0_L1I_writeback_hit 0
Core_0_L1I_writeback_miss 0
Core_0_L1I_prefetch_requested 0
Core_0_L1I_prefetch_issued 0
Core_0_L1I_prefetch_useful 0
Core_0_L1I_prefetch_useless 0
Core_0_L1I_prefetch_late 0
Core_0_L1I_average_miss_latency 188.67532

Core_0_L2C_total_access 5058188
Core_0_L2C_total_hit 2645379
Core_0_L2C_total_miss 2412809
Core_0_L2C_loads 676416
Core_0_L2C_load_hit 431294
Core_0_L2C_load_miss 245122
Core_0_L2C_RFOs 21
Core_0_L2C_RFO_hit 1
Core_0_L2C_RFO_miss 20
Core_0_L2C_prefetches 3702461
Core_0_L2C_prefetch_hit 1534907
Core_0_L2C_prefetch_miss 2167554
Core_0_L2C_writebacks 679290
Core_0_L2C_writeback_hit 679177
Core_0_L2C_writeback_miss 113
Core_0_L2C_prefetch_requested 8400482
Core_0_L2C_prefetch_issued 8269516
Core_0_L2C_prefetch_useful 250878
Core_0_L2C_prefetch_useless 3830105
Core_0_L2C_prefetch_late 68
Core_0_L2C_average_miss_latency 246.22150

Core_0_LLC_total_access 4033420
Core_0_LLC_total_hit 2002952
Core_0_LLC_total_miss 2030468
Core_0_LLC_loads 245077
Core_0_LLC_load_hit 156190
Core_0_LLC_load_miss 88887
Core_0_LLC_RFOs 19
Core_0_LLC_RFO_hit 0
Core_0_LLC_RFO_miss 19
Core_0_LLC_prefetches 3112793
Core_0_LLC_prefetch_hit 1208534
Core_0_LLC_prefetch_miss 1904259
Core_0_LLC_writebacks 675531
Core_0_LLC_writeback_hit 638228
Core_0_LLC_writeback_miss 37303
Core_0_LLC_prefetch_requested 4509763
Core_0_LLC_prefetch_issued 4441966
Core_0_LLC_prefetch_useful 161579
Core_0_LLC_prefetch_useless 2689184
Core_0_LLC_prefetch_late 13439
Core_0_LLC_average_miss_latency 428.54710

Core_0_major_page_fault 0
Core_0_minor_page_fault 80857

CPU 0 L1D next line prefetcher final stats
CPU 0 L2C next line prefetcher final stats
LLC Next Line Prefetcher Final Stats: none
Channel_0_RQ_row_buffer_hit 492003
Channel_0_RQ_row_buffer_miss 1501163
Channel_0_WQ_row_buffer_hit 82439
Channel_0_WQ_row_buffer_miss 579147
Channel_0_WQ_full 0
Channel_0_dbus_congested 1358499

avg_congested_cycle 10
