*************************************************
   ChampSim Multicore Out-of-Order Simulator
   Last compiled: Dec 25 2023 14:59:46
*************************************************

trace_0 ./test_trace/459.GemsFDTD-1320B.champsimtrace.xz
CPU 0 L2C next line prefetcher
Initialize DRRIP state
Assign rand_sets[0]: 454  LLC: 2048
rand_sets[0]: 454
Assign rand_sets[1]: 1662  LLC: 2048
rand_sets[1]: 1662
Assign rand_sets[2]: 1921  LLC: 2048
rand_sets[2]: 1921
Assign rand_sets[3]: 1131  LLC: 2048
rand_sets[3]: 1131
Assign rand_sets[4]: 331  LLC: 2048
rand_sets[4]: 331
Assign rand_sets[5]: 1531  LLC: 2048
rand_sets[5]: 1531
Assign rand_sets[6]: 482  LLC: 2048
rand_sets[6]: 482
Assign rand_sets[7]: 1275  LLC: 2048
rand_sets[7]: 1275
Assign rand_sets[8]: 1876  LLC: 2048
rand_sets[8]: 1876
Assign rand_sets[9]: 2038  LLC: 2048
rand_sets[9]: 2038
Assign rand_sets[10]: 701  LLC: 2048
rand_sets[10]: 701
Assign rand_sets[11]: 479  LLC: 2048
rand_sets[11]: 479
Assign rand_sets[12]: 892  LLC: 2048
rand_sets[12]: 892
Assign rand_sets[13]: 1820  LLC: 2048
rand_sets[13]: 1820
Assign rand_sets[14]: 1505  LLC: 2048
rand_sets[14]: 1505
Assign rand_sets[15]: 1159  LLC: 2048
rand_sets[15]: 1159
Assign rand_sets[16]: 513  LLC: 2048
rand_sets[16]: 513
Assign rand_sets[17]: 703  LLC: 2048
rand_sets[17]: 703
Assign rand_sets[18]: 561  LLC: 2048
rand_sets[18]: 561
Assign rand_sets[19]: 990  LLC: 2048
rand_sets[19]: 990
Assign rand_sets[20]: 342  LLC: 2048
rand_sets[20]: 342
Assign rand_sets[21]: 882  LLC: 2048
rand_sets[21]: 882
Assign rand_sets[22]: 15  LLC: 2048
rand_sets[22]: 15
Assign rand_sets[23]: 71  LLC: 2048
rand_sets[23]: 71
Assign rand_sets[24]: 1127  LLC: 2048
rand_sets[24]: 1127
Assign rand_sets[25]: 1382  LLC: 2048
rand_sets[25]: 1382
Assign rand_sets[26]: 647  LLC: 2048
rand_sets[26]: 647
Assign rand_sets[27]: 857  LLC: 2048
rand_sets[27]: 857
Assign rand_sets[28]: 1450  LLC: 2048
rand_sets[28]: 1450
Assign rand_sets[29]: 1160  LLC: 2048
rand_sets[29]: 1160
Assign rand_sets[30]: 1852  LLC: 2048
rand_sets[30]: 1852
Assign rand_sets[31]: 1881  LLC: 2048
rand_sets[31]: 1881
Assign rand_sets[32]: 1770  LLC: 2048
rand_sets[32]: 1770
Assign rand_sets[33]: 1622  LLC: 2048
rand_sets[33]: 1622
Assign rand_sets[34]: 275  LLC: 2048
rand_sets[34]: 275
Assign rand_sets[35]: 635  LLC: 2048
rand_sets[35]: 635
Assign rand_sets[36]: 466  LLC: 2048
rand_sets[36]: 466
Assign rand_sets[37]: 1413  LLC: 2048
rand_sets[37]: 1413
Assign rand_sets[38]: 417  LLC: 2048
rand_sets[38]: 417
Assign rand_sets[39]: 472  LLC: 2048
rand_sets[39]: 472
Assign rand_sets[40]: 1340  LLC: 2048
rand_sets[40]: 1340
Assign rand_sets[41]: 852  LLC: 2048
rand_sets[41]: 852
Assign rand_sets[42]: 1365  LLC: 2048
rand_sets[42]: 1365
Assign rand_sets[43]: 47  LLC: 2048
rand_sets[43]: 47
Assign rand_sets[44]: 823  LLC: 2048
rand_sets[44]: 823
Assign rand_sets[45]: 686  LLC: 2048
rand_sets[45]: 686
Assign rand_sets[46]: 1637  LLC: 2048
rand_sets[46]: 1637
Assign rand_sets[47]: 1115  LLC: 2048
rand_sets[47]: 1115
Assign rand_sets[48]: 986  LLC: 2048
rand_sets[48]: 986
Assign rand_sets[49]: 258  LLC: 2048
rand_sets[49]: 258
Assign rand_sets[50]: 633  LLC: 2048
rand_sets[50]: 633
Assign rand_sets[51]: 920  LLC: 2048
rand_sets[51]: 920
Assign rand_sets[52]: 204  LLC: 2048
rand_sets[52]: 204
Assign rand_sets[53]: 227  LLC: 2048
rand_sets[53]: 227
Assign rand_sets[54]: 1818  LLC: 2048
rand_sets[54]: 1818
Assign rand_sets[55]: 886  LLC: 2048
rand_sets[55]: 886
Assign rand_sets[56]: 1422  LLC: 2048
rand_sets[56]: 1422
Assign rand_sets[57]: 607  LLC: 2048
rand_sets[57]: 607
Assign rand_sets[58]: 217  LLC: 2048
rand_sets[58]: 217
Assign rand_sets[59]: 1945  LLC: 2048
rand_sets[59]: 1945
Assign rand_sets[60]: 143  LLC: 2048
rand_sets[60]: 143
Assign rand_sets[61]: 1311  LLC: 2048
rand_sets[61]: 1311
Assign rand_sets[62]: 319  LLC: 2048
rand_sets[62]: 319
Assign rand_sets[63]: 1846  LLC: 2048
rand_sets[63]: 1846
LLC Next Line Prefetcher
warmup_instructions 100000000
simulation_instructions 100000000
champsim_seed 264

num_cpus 1
cpu_freq 4000
dram_io_freq 2400
page_size 4096
block_size 64
max_read_per_cycle 8
max_fill_per_cycle 1
dram_channels 1
dram_ranks 1
dram_banks 8
dram_rows 65536
dram_columns 128
dram_row_size 8
dram_size 4096
dram_pages 1048576

fetch_width 6
decode_width 6
exec_width 4
lq_width 2
sq_width 2
retire_width 4
scheduler_size 128
branch_mispredict_penalty 20
rob_size 256
lq_size 72
sq_size 56
num_instr_destinations_sparc 4
num_instr_destinations 2
num_instr_sources 4

itlb_set 16
itlb_way 8
itlb_rq_size 16
itlb_wq_size 16
itlb_pq_size 0
itlb_mshr_size 8
itlb_latency 1

dtlb_set 16
dtlb_way 4
dtlb_rq_size 16
dtlb_wq_size 16
dtlb_pq_size 0
dtlb_mshr_size 8
dtlb_latency 1

stlb_set 128
stlb_way 12
stlb_rq_size 32
stlb_wq_size 32
stlb_pq_size 0
stlb_mshr_size 16
stlb_latency 8

l1i_size 32
l1i_set 64
l1i_way 8
l1i_rq_size 64
l1i_wq_size 64
l1i_pq_size 8
l1i_mshr_size 8
l1i_latency 1

l1d_size 32
l1d_set 64
l1d_way 8
l1d_rq_size 64
l1d_wq_size 64
l1d_pq_size 8
l1d_mshr_size 16
l1d_latency 4

l2c_size 512
l2c_set 1024
l2c_way 8
l2c_rq_size 32
l2c_wq_size 32
l2c_pq_size 16
l2c_mshr_size 32
l2c_latency 10

llc_size 2048
llc_set 2048
llc_way 16
llc_rq_size 32
llc_wq_size 32
llc_pq_size 32
llc_mshr_size 64
llc_latency 20

dram_channel_width 8
dram_wq_size 64
dram_rq_size 64
tRP 15
tRCD 15
tCAS 12.5
dram_dbus_turn_around_time 30
dram_write_high_wm 56
dram_write_low_wm 48
min_dram_writes_per_switch 16
dram_mtps 2400
dram_dbus_return_time 13


Heartbeat CPU  0 instructions:    1000000 cycles:     673416 heartbeat IPC: 1.48497 cumulative IPC: 1.48497 (Simulation time: 0 hr 0 min 2 sec) 
Heartbeat CPU  0 instructions:    2000003 cycles:    1346021 heartbeat IPC: 1.48676 cumulative IPC: 1.48586 (Simulation time: 0 hr 0 min 4 sec) 
Heartbeat CPU  0 instructions:    3000002 cycles:    2018644 heartbeat IPC: 1.48672 cumulative IPC: 1.48615 (Simulation time: 0 hr 0 min 6 sec) 
Heartbeat CPU  0 instructions:    4000000 cycles:    2691432 heartbeat IPC: 1.48635 cumulative IPC: 1.48620 (Simulation time: 0 hr 0 min 7 sec) 
Heartbeat CPU  0 instructions:    5000001 cycles:    3364395 heartbeat IPC: 1.48597 cumulative IPC: 1.48615 (Simulation time: 0 hr 0 min 9 sec) 
Heartbeat CPU  0 instructions:    6000001 cycles:    4036810 heartbeat IPC: 1.48718 cumulative IPC: 1.48632 (Simulation time: 0 hr 0 min 11 sec) 
Heartbeat CPU  0 instructions:    7000001 cycles:    4709397 heartbeat IPC: 1.48680 cumulative IPC: 1.48639 (Simulation time: 0 hr 0 min 13 sec) 
Heartbeat CPU  0 instructions:    8000000 cycles:    5382060 heartbeat IPC: 1.48663 cumulative IPC: 1.48642 (Simulation time: 0 hr 0 min 15 sec) 
Heartbeat CPU  0 instructions:    9000003 cycles:    6054723 heartbeat IPC: 1.48663 cumulative IPC: 1.48644 (Simulation time: 0 hr 0 min 17 sec) 
Heartbeat CPU  0 instructions:   10000003 cycles:    6727457 heartbeat IPC: 1.48647 cumulative IPC: 1.48645 (Simulation time: 0 hr 0 min 19 sec) 
Heartbeat CPU  0 instructions:   11000003 cycles:    7400008 heartbeat IPC: 1.48688 cumulative IPC: 1.48649 (Simulation time: 0 hr 0 min 20 sec) 
Heartbeat CPU  0 instructions:   12000000 cycles:    8072530 heartbeat IPC: 1.48694 cumulative IPC: 1.48652 (Simulation time: 0 hr 0 min 22 sec) 
Heartbeat CPU  0 instructions:   13000000 cycles:    8750109 heartbeat IPC: 1.47584 cumulative IPC: 1.48570 (Simulation time: 0 hr 0 min 24 sec) 
Heartbeat CPU  0 instructions:   14000002 cycles:    9428989 heartbeat IPC: 1.47302 cumulative IPC: 1.48478 (Simulation time: 0 hr 0 min 26 sec) 
Heartbeat CPU  0 instructions:   15000000 cycles:   10108045 heartbeat IPC: 1.47263 cumulative IPC: 1.48397 (Simulation time: 0 hr 0 min 27 sec) 
Heartbeat CPU  0 instructions:   16000000 cycles:   10787106 heartbeat IPC: 1.47262 cumulative IPC: 1.48325 (Simulation time: 0 hr 0 min 29 sec) 
Heartbeat CPU  0 instructions:   17000002 cycles:   11466212 heartbeat IPC: 1.47253 cumulative IPC: 1.48262 (Simulation time: 0 hr 0 min 31 sec) 
Heartbeat CPU  0 instructions:   18000003 cycles:   12145198 heartbeat IPC: 1.47279 cumulative IPC: 1.48207 (Simulation time: 0 hr 0 min 33 sec) 
Heartbeat CPU  0 instructions:   19000003 cycles:   12824144 heartbeat IPC: 1.47287 cumulative IPC: 1.48158 (Simulation time: 0 hr 0 min 35 sec) 
Heartbeat CPU  0 instructions:   20000000 cycles:   13503223 heartbeat IPC: 1.47258 cumulative IPC: 1.48113 (Simulation time: 0 hr 0 min 36 sec) 
Heartbeat CPU  0 instructions:   21000002 cycles:   14182320 heartbeat IPC: 1.47255 cumulative IPC: 1.48072 (Simulation time: 0 hr 0 min 38 sec) 
Heartbeat CPU  0 instructions:   22000000 cycles:   14861302 heartbeat IPC: 1.47279 cumulative IPC: 1.48035 (Simulation time: 0 hr 0 min 40 sec) 
Heartbeat CPU  0 instructions:   23000000 cycles:   15540292 heartbeat IPC: 1.47278 cumulative IPC: 1.48002 (Simulation time: 0 hr 0 min 42 sec) 
Heartbeat CPU  0 instructions:   24000000 cycles:   16219329 heartbeat IPC: 1.47267 cumulative IPC: 1.47972 (Simulation time: 0 hr 0 min 43 sec) 
Heartbeat CPU  0 instructions:   25000001 cycles:   16898461 heartbeat IPC: 1.47247 cumulative IPC: 1.47942 (Simulation time: 0 hr 0 min 45 sec) 
Heartbeat CPU  0 instructions:   26000001 cycles:   17577505 heartbeat IPC: 1.47266 cumulative IPC: 1.47916 (Simulation time: 0 hr 0 min 47 sec) 
Heartbeat CPU  0 instructions:   27000001 cycles:   18256503 heartbeat IPC: 1.47276 cumulative IPC: 1.47893 (Simulation time: 0 hr 0 min 49 sec) 
Heartbeat CPU  0 instructions:   28000000 cycles:   18934831 heartbeat IPC: 1.47421 cumulative IPC: 1.47876 (Simulation time: 0 hr 0 min 50 sec) 
Heartbeat CPU  0 instructions:   29000002 cycles:   19611520 heartbeat IPC: 1.47779 cumulative IPC: 1.47872 (Simulation time: 0 hr 0 min 52 sec) 
Heartbeat CPU  0 instructions:   30000000 cycles:   20288194 heartbeat IPC: 1.47781 cumulative IPC: 1.47869 (Simulation time: 0 hr 0 min 54 sec) 
Heartbeat CPU  0 instructions:   31000000 cycles:   20964835 heartbeat IPC: 1.47789 cumulative IPC: 1.47867 (Simulation time: 0 hr 0 min 55 sec) 
Heartbeat CPU  0 instructions:   32000000 cycles:   21641388 heartbeat IPC: 1.47808 cumulative IPC: 1.47865 (Simulation time: 0 hr 0 min 57 sec) 
Heartbeat CPU  0 instructions:   33000002 cycles:   22318129 heartbeat IPC: 1.47767 cumulative IPC: 1.47862 (Simulation time: 0 hr 0 min 59 sec) 
Heartbeat CPU  0 instructions:   34000000 cycles:   22994764 heartbeat IPC: 1.47790 cumulative IPC: 1.47860 (Simulation time: 0 hr 1 min 1 sec) 
Heartbeat CPU  0 instructions:   35000002 cycles:   23671462 heartbeat IPC: 1.47777 cumulative IPC: 1.47857 (Simulation time: 0 hr 1 min 2 sec) 
Heartbeat CPU  0 instructions:   36000000 cycles:   24348058 heartbeat IPC: 1.47798 cumulative IPC: 1.47856 (Simulation time: 0 hr 1 min 4 sec) 
Heartbeat CPU  0 instructions:   37000000 cycles:   25024890 heartbeat IPC: 1.47747 cumulative IPC: 1.47853 (Simulation time: 0 hr 1 min 6 sec) 
Heartbeat CPU  0 instructions:   38000000 cycles:   25701474 heartbeat IPC: 1.47801 cumulative IPC: 1.47851 (Simulation time: 0 hr 1 min 8 sec) 
Heartbeat CPU  0 instructions:   39000002 cycles:   26378213 heartbeat IPC: 1.47768 cumulative IPC: 1.47849 (Simulation time: 0 hr 1 min 10 sec) 
Heartbeat CPU  0 instructions:   40000000 cycles:   27055031 heartbeat IPC: 1.47750 cumulative IPC: 1.47847 (Simulation time: 0 hr 1 min 12 sec) 
Heartbeat CPU  0 instructions:   41000000 cycles:   27731889 heartbeat IPC: 1.47741 cumulative IPC: 1.47844 (Simulation time: 0 hr 1 min 13 sec) 
Heartbeat CPU  0 instructions:   42000002 cycles:   28408543 heartbeat IPC: 1.47786 cumulative IPC: 1.47843 (Simulation time: 0 hr 1 min 15 sec) 
Heartbeat CPU  0 instructions:   43000002 cycles:   29085179 heartbeat IPC: 1.47790 cumulative IPC: 1.47842 (Simulation time: 0 hr 1 min 17 sec) 
Heartbeat CPU  0 instructions:   44000000 cycles:   29751442 heartbeat IPC: 1.50091 cumulative IPC: 1.47892 (Simulation time: 0 hr 1 min 19 sec) 
Heartbeat CPU  0 instructions:   45000003 cycles:   30417598 heartbeat IPC: 1.50115 cumulative IPC: 1.47941 (Simulation time: 0 hr 1 min 21 sec) 
Heartbeat CPU  0 instructions:   46000001 cycles:   31083512 heartbeat IPC: 1.50169 cumulative IPC: 1.47988 (Simulation time: 0 hr 1 min 23 sec) 
Heartbeat CPU  0 instructions:   47000000 cycles:   31749374 heartbeat IPC: 1.50181 cumulative IPC: 1.48034 (Simulation time: 0 hr 1 min 25 sec) 
Heartbeat CPU  0 instructions:   48000000 cycles:   32415158 heartbeat IPC: 1.50199 cumulative IPC: 1.48079 (Simulation time: 0 hr 1 min 27 sec) 
Heartbeat CPU  0 instructions:   49000000 cycles:   33081027 heartbeat IPC: 1.50180 cumulative IPC: 1.48121 (Simulation time: 0 hr 1 min 29 sec) 
Heartbeat CPU  0 instructions:   50000003 cycles:   33747093 heartbeat IPC: 1.50136 cumulative IPC: 1.48161 (Simulation time: 0 hr 1 min 30 sec) 
Heartbeat CPU  0 instructions:   51000003 cycles:   34413004 heartbeat IPC: 1.50170 cumulative IPC: 1.48200 (Simulation time: 0 hr 1 min 32 sec) 
Heartbeat CPU  0 instructions:   52000000 cycles:   35078942 heartbeat IPC: 1.50164 cumulative IPC: 1.48237 (Simulation time: 0 hr 1 min 34 sec) 
Heartbeat CPU  0 instructions:   53000003 cycles:   35744924 heartbeat IPC: 1.50155 cumulative IPC: 1.48273 (Simulation time: 0 hr 1 min 36 sec) 
Heartbeat CPU  0 instructions:   54000000 cycles:   36410639 heartbeat IPC: 1.50214 cumulative IPC: 1.48308 (Simulation time: 0 hr 1 min 38 sec) 
Heartbeat CPU  0 instructions:   55000000 cycles:   37076642 heartbeat IPC: 1.50149 cumulative IPC: 1.48341 (Simulation time: 0 hr 1 min 39 sec) 
Heartbeat CPU  0 instructions:   56000000 cycles:   37738502 heartbeat IPC: 1.51089 cumulative IPC: 1.48390 (Simulation time: 0 hr 1 min 41 sec) 
Heartbeat CPU  0 instructions:   57000003 cycles:   38399684 heartbeat IPC: 1.51245 cumulative IPC: 1.48439 (Simulation time: 0 hr 1 min 43 sec) 
Heartbeat CPU  0 instructions:   58000000 cycles:   39061082 heartbeat IPC: 1.51194 cumulative IPC: 1.48485 (Simulation time: 0 hr 1 min 45 sec) 
Heartbeat CPU  0 instructions:   59000000 cycles:   39722348 heartbeat IPC: 1.51225 cumulative IPC: 1.48531 (Simulation time: 0 hr 1 min 46 sec) 
Heartbeat CPU  0 instructions:   60000000 cycles:   40383454 heartbeat IPC: 1.51262 cumulative IPC: 1.48576 (Simulation time: 0 hr 1 min 48 sec) 
Heartbeat CPU  0 instructions:   61000001 cycles:   41045100 heartbeat IPC: 1.51138 cumulative IPC: 1.48617 (Simulation time: 0 hr 1 min 50 sec) 
Heartbeat CPU  0 instructions:   62000000 cycles:   41706348 heartbeat IPC: 1.51229 cumulative IPC: 1.48658 (Simulation time: 0 hr 1 min 52 sec) 
Heartbeat CPU  0 instructions:   63000001 cycles:   42367696 heartbeat IPC: 1.51206 cumulative IPC: 1.48698 (Simulation time: 0 hr 1 min 53 sec) 
Heartbeat CPU  0 instructions:   64000000 cycles:   43028799 heartbeat IPC: 1.51262 cumulative IPC: 1.48738 (Simulation time: 0 hr 1 min 55 sec) 
Heartbeat CPU  0 instructions:   65000003 cycles:   43690025 heartbeat IPC: 1.51235 cumulative IPC: 1.48775 (Simulation time: 0 hr 1 min 57 sec) 
Heartbeat CPU  0 instructions:   66000000 cycles:   44351273 heartbeat IPC: 1.51229 cumulative IPC: 1.48812 (Simulation time: 0 hr 1 min 59 sec) 
Heartbeat CPU  0 instructions:   67000000 cycles:   45012535 heartbeat IPC: 1.51226 cumulative IPC: 1.48847 (Simulation time: 0 hr 2 min 0 sec) 
Heartbeat CPU  0 instructions:   68000000 cycles:   45682489 heartbeat IPC: 1.49264 cumulative IPC: 1.48854 (Simulation time: 0 hr 2 min 2 sec) 
Heartbeat CPU  0 instructions:   69000002 cycles:   46353018 heartbeat IPC: 1.49136 cumulative IPC: 1.48858 (Simulation time: 0 hr 2 min 4 sec) 
Heartbeat CPU  0 instructions:   70000001 cycles:   47023847 heartbeat IPC: 1.49069 cumulative IPC: 1.48861 (Simulation time: 0 hr 2 min 5 sec) 
Heartbeat CPU  0 instructions:   71000002 cycles:   47694271 heartbeat IPC: 1.49159 cumulative IPC: 1.48865 (Simulation time: 0 hr 2 min 7 sec) 
Heartbeat CPU  0 instructions:   72000000 cycles:   48364976 heartbeat IPC: 1.49097 cumulative IPC: 1.48868 (Simulation time: 0 hr 2 min 9 sec) 
Heartbeat CPU  0 instructions:   73000000 cycles:   49035633 heartbeat IPC: 1.49108 cumulative IPC: 1.48871 (Simulation time: 0 hr 2 min 11 sec) 
Heartbeat CPU  0 instructions:   74000000 cycles:   49706013 heartbeat IPC: 1.49169 cumulative IPC: 1.48875 (Simulation time: 0 hr 2 min 12 sec) 
Heartbeat CPU  0 instructions:   75000001 cycles:   50376834 heartbeat IPC: 1.49071 cumulative IPC: 1.48878 (Simulation time: 0 hr 2 min 14 sec) 
Heartbeat CPU  0 instructions:   76000000 cycles:   51047090 heartbeat IPC: 1.49197 cumulative IPC: 1.48882 (Simulation time: 0 hr 2 min 16 sec) 
Heartbeat CPU  0 instructions:   77000000 cycles:   51717855 heartbeat IPC: 1.49084 cumulative IPC: 1.48885 (Simulation time: 0 hr 2 min 18 sec) 
Heartbeat CPU  0 instructions:   78000003 cycles:   52388441 heartbeat IPC: 1.49124 cumulative IPC: 1.48888 (Simulation time: 0 hr 2 min 19 sec) 
Heartbeat CPU  0 instructions:   79000002 cycles:   53058769 heartbeat IPC: 1.49181 cumulative IPC: 1.48892 (Simulation time: 0 hr 2 min 21 sec) 
Heartbeat CPU  0 instructions:   80000000 cycles:   53731748 heartbeat IPC: 1.48593 cumulative IPC: 1.48888 (Simulation time: 0 hr 2 min 23 sec) 
Heartbeat CPU  0 instructions:   81000003 cycles:   54405256 heartbeat IPC: 1.48477 cumulative IPC: 1.48883 (Simulation time: 0 hr 2 min 25 sec) 
Heartbeat CPU  0 instructions:   82000001 cycles:   55078399 heartbeat IPC: 1.48557 cumulative IPC: 1.48879 (Simulation time: 0 hr 2 min 26 sec) 
Heartbeat CPU  0 instructions:   83000002 cycles:   55751804 heartbeat IPC: 1.48499 cumulative IPC: 1.48874 (Simulation time: 0 hr 2 min 28 sec) 
Heartbeat CPU  0 instructions:   84000000 cycles:   56424761 heartbeat IPC: 1.48598 cumulative IPC: 1.48871 (Simulation time: 0 hr 2 min 30 sec) 
Heartbeat CPU  0 instructions:   85000000 cycles:   57098016 heartbeat IPC: 1.48532 cumulative IPC: 1.48867 (Simulation time: 0 hr 2 min 31 sec) 
Heartbeat CPU  0 instructions:   86000001 cycles:   57771438 heartbeat IPC: 1.48495 cumulative IPC: 1.48862 (Simulation time: 0 hr 2 min 33 sec) 
Heartbeat CPU  0 instructions:   87000000 cycles:   58444673 heartbeat IPC: 1.48536 cumulative IPC: 1.48859 (Simulation time: 0 hr 2 min 35 sec) 
Heartbeat CPU  0 instructions:   88000000 cycles:   59118127 heartbeat IPC: 1.48488 cumulative IPC: 1.48855 (Simulation time: 0 hr 2 min 37 sec) 
Heartbeat CPU  0 instructions:   89000002 cycles:   59791601 heartbeat IPC: 1.48484 cumulative IPC: 1.48850 (Simulation time: 0 hr 2 min 38 sec) 
Heartbeat CPU  0 instructions:   90000001 cycles:   60464827 heartbeat IPC: 1.48538 cumulative IPC: 1.48847 (Simulation time: 0 hr 2 min 40 sec) 
Heartbeat CPU  0 instructions:   91000000 cycles:   61138083 heartbeat IPC: 1.48532 cumulative IPC: 1.48843 (Simulation time: 0 hr 2 min 42 sec) 
Heartbeat CPU  0 instructions:   92000000 cycles:   61814546 heartbeat IPC: 1.47828 cumulative IPC: 1.48832 (Simulation time: 0 hr 2 min 44 sec) 
Heartbeat CPU  0 instructions:   93000001 cycles:   62493598 heartbeat IPC: 1.47264 cumulative IPC: 1.48815 (Simulation time: 0 hr 2 min 45 sec) 
Heartbeat CPU  0 instructions:   94000001 cycles:   63172583 heartbeat IPC: 1.47279 cumulative IPC: 1.48799 (Simulation time: 0 hr 2 min 47 sec) 
Heartbeat CPU  0 instructions:   95000001 cycles:   63851628 heartbeat IPC: 1.47266 cumulative IPC: 1.48782 (Simulation time: 0 hr 2 min 49 sec) 
Heartbeat CPU  0 instructions:   96000000 cycles:   64530632 heartbeat IPC: 1.47274 cumulative IPC: 1.48767 (Simulation time: 0 hr 2 min 50 sec) 
Heartbeat CPU  0 instructions:   97000000 cycles:   65209719 heartbeat IPC: 1.47257 cumulative IPC: 1.48751 (Simulation time: 0 hr 2 min 52 sec) 
Heartbeat CPU  0 instructions:   98000000 cycles:   65888713 heartbeat IPC: 1.47277 cumulative IPC: 1.48736 (Simulation time: 0 hr 2 min 54 sec) 
Heartbeat CPU  0 instructions:   99000000 cycles:   66567776 heartbeat IPC: 1.47262 cumulative IPC: 1.48721 (Simulation time: 0 hr 2 min 56 sec) 
Heartbeat CPU  0 instructions:  100000000 cycles:   67246771 heartbeat IPC: 1.47276 cumulative IPC: 1.48706 (Simulation time: 0 hr 2 min 57 sec) 

Warmup complete CPU  0 instructions:  100000001 cycles:   67246772 (Simulation time: 0 hr 2 min 57 sec) 

Heartbeat CPU  0 instructions:  101000000 cycles:   68384018 heartbeat IPC: 0.87932 cumulative IPC: 0.87932 (Simulation time: 0 hr 2 min 59 sec) 
Heartbeat CPU  0 instructions:  102000002 cycles:   69520271 heartbeat IPC: 0.88009 cumulative IPC: 0.87970 (Simulation time: 0 hr 3 min 1 sec) 
Heartbeat CPU  0 instructions:  103000001 cycles:   70659785 heartbeat IPC: 0.87757 cumulative IPC: 0.87899 (Simulation time: 0 hr 3 min 3 sec) 
Heartbeat CPU  0 instructions:  104000000 cycles:   71799127 heartbeat IPC: 0.87770 cumulative IPC: 0.87867 (Simulation time: 0 hr 3 min 5 sec) 
Heartbeat CPU  0 instructions:  105000001 cycles:   72941131 heartbeat IPC: 0.87565 cumulative IPC: 0.87806 (Simulation time: 0 hr 3 min 7 sec) 
Heartbeat CPU  0 instructions:  106000001 cycles:   74081288 heartbeat IPC: 0.87707 cumulative IPC: 0.87790 (Simulation time: 0 hr 3 min 9 sec) 
Heartbeat CPU  0 instructions:  107000000 cycles:   75457490 heartbeat IPC: 0.72664 cumulative IPC: 0.85254 (Simulation time: 0 hr 3 min 11 sec) 
Heartbeat CPU  0 instructions:  108000000 cycles:   76648950 heartbeat IPC: 0.83931 cumulative IPC: 0.85087 (Simulation time: 0 hr 3 min 13 sec) 
Heartbeat CPU  0 instructions:  109000000 cycles:   77831321 heartbeat IPC: 0.84576 cumulative IPC: 0.85030 (Simulation time: 0 hr 3 min 15 sec) 
Heartbeat CPU  0 instructions:  110000002 cycles:   79010482 heartbeat IPC: 0.84806 cumulative IPC: 0.85007 (Simulation time: 0 hr 3 min 17 sec) 
Heartbeat CPU  0 instructions:  111000000 cycles:   80195801 heartbeat IPC: 0.84365 cumulative IPC: 0.84948 (Simulation time: 0 hr 3 min 19 sec) 
Heartbeat CPU  0 instructions:  112000000 cycles:   81361747 heartbeat IPC: 0.85767 cumulative IPC: 0.85016 (Simulation time: 0 hr 3 min 21 sec) 
Heartbeat CPU  0 instructions:  113000000 cycles:   82531215 heartbeat IPC: 0.85509 cumulative IPC: 0.85054 (Simulation time: 0 hr 3 min 23 sec) 
Heartbeat CPU  0 instructions:  114000002 cycles:   83699243 heartbeat IPC: 0.85615 cumulative IPC: 0.85094 (Simulation time: 0 hr 3 min 25 sec) 
Heartbeat CPU  0 instructions:  115000002 cycles:   84872680 heartbeat IPC: 0.85220 cumulative IPC: 0.85102 (Simulation time: 0 hr 3 min 27 sec) 
Heartbeat CPU  0 instructions:  116000000 cycles:   86054601 heartbeat IPC: 0.84608 cumulative IPC: 0.85071 (Simulation time: 0 hr 3 min 29 sec) 
Heartbeat CPU  0 instructions:  117000002 cycles:   87234832 heartbeat IPC: 0.84729 cumulative IPC: 0.85051 (Simulation time: 0 hr 3 min 31 sec) 
Heartbeat CPU  0 instructions:  118000000 cycles:   88407688 heartbeat IPC: 0.85262 cumulative IPC: 0.85062 (Simulation time: 0 hr 3 min 33 sec) 
Heartbeat CPU  0 instructions:  119000000 cycles:   89591640 heartbeat IPC: 0.84463 cumulative IPC: 0.85031 (Simulation time: 0 hr 3 min 35 sec) 
Heartbeat CPU  0 instructions:  120000000 cycles:   90763433 heartbeat IPC: 0.85339 cumulative IPC: 0.85046 (Simulation time: 0 hr 3 min 37 sec) 
Heartbeat CPU  0 instructions:  121000002 cycles:   91939910 heartbeat IPC: 0.85000 cumulative IPC: 0.85044 (Simulation time: 0 hr 3 min 39 sec) 
Heartbeat CPU  0 instructions:  122000002 cycles:   93121916 heartbeat IPC: 0.84602 cumulative IPC: 0.85024 (Simulation time: 0 hr 3 min 41 sec) 
Heartbeat CPU  0 instructions:  123000003 cycles:   94011334 heartbeat IPC: 1.12433 cumulative IPC: 0.85935 (Simulation time: 0 hr 3 min 42 sec) 
Heartbeat CPU  0 instructions:  124000000 cycles:   95009684 heartbeat IPC: 1.00165 cumulative IPC: 0.86446 (Simulation time: 0 hr 3 min 44 sec) 
Heartbeat CPU  0 instructions:  125000000 cycles:   96131403 heartbeat IPC: 0.89149 cumulative IPC: 0.86551 (Simulation time: 0 hr 3 min 46 sec) 
Heartbeat CPU  0 instructions:  126000001 cycles:   97283943 heartbeat IPC: 0.86765 cumulative IPC: 0.86559 (Simulation time: 0 hr 3 min 47 sec) 
Heartbeat CPU  0 instructions:  127000002 cycles:   98459601 heartbeat IPC: 0.85059 cumulative IPC: 0.86503 (Simulation time: 0 hr 3 min 49 sec) 
Heartbeat CPU  0 instructions:  128000000 cycles:   99631818 heartbeat IPC: 0.85308 cumulative IPC: 0.86460 (Simulation time: 0 hr 3 min 51 sec) 
Heartbeat CPU  0 instructions:  129000003 cycles:  100799481 heartbeat IPC: 0.85641 cumulative IPC: 0.86431 (Simulation time: 0 hr 3 min 52 sec) 
Heartbeat CPU  0 instructions:  130000002 cycles:  101957528 heartbeat IPC: 0.86352 cumulative IPC: 0.86429 (Simulation time: 0 hr 3 min 54 sec) 
Heartbeat CPU  0 instructions:  131000003 cycles:  103115096 heartbeat IPC: 0.86388 cumulative IPC: 0.86427 (Simulation time: 0 hr 3 min 56 sec) 
Heartbeat CPU  0 instructions:  132000000 cycles:  104279896 heartbeat IPC: 0.85851 cumulative IPC: 0.86409 (Simulation time: 0 hr 3 min 58 sec) 
Heartbeat CPU  0 instructions:  133000000 cycles:  105445743 heartbeat IPC: 0.85775 cumulative IPC: 0.86390 (Simulation time: 0 hr 3 min 59 sec) 
Heartbeat CPU  0 instructions:  134000002 cycles:  106598811 heartbeat IPC: 0.86725 cumulative IPC: 0.86400 (Simulation time: 0 hr 4 min 1 sec) 
Heartbeat CPU  0 instructions:  135000001 cycles:  107754747 heartbeat IPC: 0.86510 cumulative IPC: 0.86403 (Simulation time: 0 hr 4 min 3 sec) 
Heartbeat CPU  0 instructions:  136000000 cycles:  108920547 heartbeat IPC: 0.85778 cumulative IPC: 0.86385 (Simulation time: 0 hr 4 min 4 sec) 
Heartbeat CPU  0 instructions:  137000002 cycles:  110092817 heartbeat IPC: 0.85305 cumulative IPC: 0.86356 (Simulation time: 0 hr 4 min 6 sec) 
Heartbeat CPU  0 instructions:  138000000 cycles:  111261833 heartbeat IPC: 0.85542 cumulative IPC: 0.86334 (Simulation time: 0 hr 4 min 8 sec) 
Heartbeat CPU  0 instructions:  139000000 cycles:  112436650 heartbeat IPC: 0.85120 cumulative IPC: 0.86303 (Simulation time: 0 hr 4 min 10 sec) 
Heartbeat CPU  0 instructions:  140000000 cycles:  113603556 heartbeat IPC: 0.85697 cumulative IPC: 0.86287 (Simulation time: 0 hr 4 min 11 sec) 
Heartbeat CPU  0 instructions:  141000000 cycles:  114770024 heartbeat IPC: 0.85729 cumulative IPC: 0.86274 (Simulation time: 0 hr 4 min 13 sec) 
Heartbeat CPU  0 instructions:  142000001 cycles:  115930298 heartbeat IPC: 0.86187 cumulative IPC: 0.86271 (Simulation time: 0 hr 4 min 15 sec) 
Heartbeat CPU  0 instructions:  143000002 cycles:  117106318 heartbeat IPC: 0.85033 cumulative IPC: 0.86242 (Simulation time: 0 hr 4 min 16 sec) 
Heartbeat CPU  0 instructions:  144000000 cycles:  118274029 heartbeat IPC: 0.85637 cumulative IPC: 0.86228 (Simulation time: 0 hr 4 min 18 sec) 
Heartbeat CPU  0 instructions:  145000002 cycles:  119434465 heartbeat IPC: 0.86175 cumulative IPC: 0.86227 (Simulation time: 0 hr 4 min 20 sec) 
Heartbeat CPU  0 instructions:  146000000 cycles:  120594039 heartbeat IPC: 0.86238 cumulative IPC: 0.86227 (Simulation time: 0 hr 4 min 22 sec) 
Heartbeat CPU  0 instructions:  147000003 cycles:  121747006 heartbeat IPC: 0.86733 cumulative IPC: 0.86238 (Simulation time: 0 hr 4 min 23 sec) 
Heartbeat CPU  0 instructions:  148000000 cycles:  122986972 heartbeat IPC: 0.80647 cumulative IPC: 0.86114 (Simulation time: 0 hr 4 min 25 sec) 
Heartbeat CPU  0 instructions:  149000000 cycles:  124383244 heartbeat IPC: 0.71619 cumulative IPC: 0.85760 (Simulation time: 0 hr 4 min 27 sec) 
Heartbeat CPU  0 instructions:  150000002 cycles:  125766046 heartbeat IPC: 0.72317 cumulative IPC: 0.85442 (Simulation time: 0 hr 4 min 29 sec) 
Heartbeat CPU  0 instructions:  151000001 cycles:  127177410 heartbeat IPC: 0.70853 cumulative IPC: 0.85098 (Simulation time: 0 hr 4 min 30 sec) 
Heartbeat CPU  0 instructions:  152000000 cycles:  128528029 heartbeat IPC: 0.74040 cumulative IPC: 0.84855 (Simulation time: 0 hr 4 min 32 sec) 
Heartbeat CPU  0 instructions:  153000002 cycles:  129944396 heartbeat IPC: 0.70603 cumulative IPC: 0.84533 (Simulation time: 0 hr 4 min 34 sec) 
Heartbeat CPU  0 instructions:  154000003 cycles:  131313818 heartbeat IPC: 0.73024 cumulative IPC: 0.84287 (Simulation time: 0 hr 4 min 36 sec) 
Heartbeat CPU  0 instructions:  155000000 cycles:  132714588 heartbeat IPC: 0.71389 cumulative IPC: 0.84011 (Simulation time: 0 hr 4 min 38 sec) 
Heartbeat CPU  0 instructions:  156000000 cycles:  134084768 heartbeat IPC: 0.72983 cumulative IPC: 0.83785 (Simulation time: 0 hr 4 min 39 sec) 
Heartbeat CPU  0 instructions:  157000001 cycles:  135498838 heartbeat IPC: 0.70718 cumulative IPC: 0.83514 (Simulation time: 0 hr 4 min 41 sec) 
Heartbeat CPU  0 instructions:  158000001 cycles:  136865139 heartbeat IPC: 0.73190 cumulative IPC: 0.83311 (Simulation time: 0 hr 4 min 43 sec) 
Heartbeat CPU  0 instructions:  159000002 cycles:  138261508 heartbeat IPC: 0.71614 cumulative IPC: 0.83081 (Simulation time: 0 hr 4 min 45 sec) 
Heartbeat CPU  0 instructions:  160000000 cycles:  139652794 heartbeat IPC: 0.71876 cumulative IPC: 0.82866 (Simulation time: 0 hr 4 min 47 sec) 
Heartbeat CPU  0 instructions:  161000002 cycles:  141090148 heartbeat IPC: 0.69572 cumulative IPC: 0.82607 (Simulation time: 0 hr 4 min 48 sec) 
Heartbeat CPU  0 instructions:  162000003 cycles:  142476032 heartbeat IPC: 0.72156 cumulative IPC: 0.82415 (Simulation time: 0 hr 4 min 50 sec) 
Heartbeat CPU  0 instructions:  163000003 cycles:  143922595 heartbeat IPC: 0.69129 cumulative IPC: 0.82164 (Simulation time: 0 hr 4 min 52 sec) 
Heartbeat CPU  0 instructions:  164000000 cycles:  145295429 heartbeat IPC: 0.72842 cumulative IPC: 0.82000 (Simulation time: 0 hr 4 min 54 sec) 
Heartbeat CPU  0 instructions:  165000000 cycles:  146715490 heartbeat IPC: 0.70420 cumulative IPC: 0.81793 (Simulation time: 0 hr 4 min 56 sec) 
Heartbeat CPU  0 instructions:  166000001 cycles:  148070214 heartbeat IPC: 0.73816 cumulative IPC: 0.81659 (Simulation time: 0 hr 4 min 57 sec) 
Heartbeat CPU  0 instructions:  167000001 cycles:  149526103 heartbeat IPC: 0.68687 cumulative IPC: 0.81430 (Simulation time: 0 hr 4 min 59 sec) 
Heartbeat CPU  0 instructions:  168000000 cycles:  150892428 heartbeat IPC: 0.73189 cumulative IPC: 0.81295 (Simulation time: 0 hr 5 min 1 sec) 
Heartbeat CPU  0 instructions:  169000002 cycles:  152286366 heartbeat IPC: 0.71739 cumulative IPC: 0.81139 (Simulation time: 0 hr 5 min 3 sec) 
Heartbeat CPU  0 instructions:  170000003 cycles:  153672313 heartbeat IPC: 0.72153 cumulative IPC: 0.80995 (Simulation time: 0 hr 5 min 5 sec) 
Heartbeat CPU  0 instructions:  171000000 cycles:  155068942 heartbeat IPC: 0.71601 cumulative IPC: 0.80845 (Simulation time: 0 hr 5 min 6 sec) 
Heartbeat CPU  0 instructions:  172000000 cycles:  156424900 heartbeat IPC: 0.73749 cumulative IPC: 0.80737 (Simulation time: 0 hr 5 min 8 sec) 
Heartbeat CPU  0 instructions:  173000001 cycles:  157804336 heartbeat IPC: 0.72493 cumulative IPC: 0.80612 (Simulation time: 0 hr 5 min 10 sec) 
Heartbeat CPU  0 instructions:  174000001 cycles:  159208099 heartbeat IPC: 0.71237 cumulative IPC: 0.80469 (Simulation time: 0 hr 5 min 12 sec) 
Heartbeat CPU  0 instructions:  175000003 cycles:  160558294 heartbeat IPC: 0.74064 cumulative IPC: 0.80376 (Simulation time: 0 hr 5 min 14 sec) 
Heartbeat CPU  0 instructions:  176000000 cycles:  161963789 heartbeat IPC: 0.71149 cumulative IPC: 0.80239 (Simulation time: 0 hr 5 min 15 sec) 
Heartbeat CPU  0 instructions:  177000003 cycles:  163324319 heartbeat IPC: 0.73501 cumulative IPC: 0.80144 (Simulation time: 0 hr 5 min 17 sec) 
Heartbeat CPU  0 instructions:  178000000 cycles:  164738344 heartbeat IPC: 0.70720 cumulative IPC: 0.80007 (Simulation time: 0 hr 5 min 19 sec) 
Heartbeat CPU  0 instructions:  179000001 cycles:  166091838 heartbeat IPC: 0.73883 cumulative IPC: 0.79923 (Simulation time: 0 hr 5 min 21 sec) 
Heartbeat CPU  0 instructions:  180000000 cycles:  167517735 heartbeat IPC: 0.70131 cumulative IPC: 0.79784 (Simulation time: 0 hr 5 min 23 sec) 
Heartbeat CPU  0 instructions:  181000001 cycles:  168907728 heartbeat IPC: 0.71943 cumulative IPC: 0.79677 (Simulation time: 0 hr 5 min 25 sec) 
Heartbeat CPU  0 instructions:  182000001 cycles:  170301374 heartbeat IPC: 0.71754 cumulative IPC: 0.79569 (Simulation time: 0 hr 5 min 26 sec) 
Heartbeat CPU  0 instructions:  183000002 cycles:  171659114 heartbeat IPC: 0.73652 cumulative IPC: 0.79493 (Simulation time: 0 hr 5 min 28 sec) 
Heartbeat CPU  0 instructions:  184000000 cycles:  173108961 heartbeat IPC: 0.68973 cumulative IPC: 0.79348 (Simulation time: 0 hr 5 min 30 sec) 
Heartbeat CPU  0 instructions:  185000003 cycles:  174486998 heartbeat IPC: 0.72567 cumulative IPC: 0.79261 (Simulation time: 0 hr 5 min 32 sec) 
Heartbeat CPU  0 instructions:  186000003 cycles:  175893177 heartbeat IPC: 0.71115 cumulative IPC: 0.79156 (Simulation time: 0 hr 5 min 34 sec) 
Heartbeat CPU  0 instructions:  187000000 cycles:  177268764 heartbeat IPC: 0.72696 cumulative IPC: 0.79075 (Simulation time: 0 hr 5 min 35 sec) 
Heartbeat CPU  0 instructions:  188000000 cycles:  178706774 heartbeat IPC: 0.69541 cumulative IPC: 0.78952 (Simulation time: 0 hr 5 min 37 sec) 
Heartbeat CPU  0 instructions:  189000001 cycles:  180073434 heartbeat IPC: 0.73171 cumulative IPC: 0.78882 (Simulation time: 0 hr 5 min 39 sec) 
Heartbeat CPU  0 instructions:  190000001 cycles:  181481300 heartbeat IPC: 0.71029 cumulative IPC: 0.78785 (Simulation time: 0 hr 5 min 41 sec) 
Heartbeat CPU  0 instructions:  191000002 cycles:  182887693 heartbeat IPC: 0.71104 cumulative IPC: 0.78692 (Simulation time: 0 hr 5 min 42 sec) 
Heartbeat CPU  0 instructions:  192000000 cycles:  184303449 heartbeat IPC: 0.70634 cumulative IPC: 0.78594 (Simulation time: 0 hr 5 min 44 sec) 
Heartbeat CPU  0 instructions:  193000003 cycles:  185659965 heartbeat IPC: 0.73718 cumulative IPC: 0.78539 (Simulation time: 0 hr 5 min 46 sec) 
Heartbeat CPU  0 instructions:  194000000 cycles:  187093218 heartbeat IPC: 0.69771 cumulative IPC: 0.78434 (Simulation time: 0 hr 5 min 48 sec) 
Heartbeat CPU  0 instructions:  195000000 cycles:  188443268 heartbeat IPC: 0.74071 cumulative IPC: 0.78385 (Simulation time: 0 hr 5 min 49 sec) 
Heartbeat CPU  0 instructions:  196000000 cycles:  189839782 heartbeat IPC: 0.71607 cumulative IPC: 0.78308 (Simulation time: 0 hr 5 min 51 sec) 
Heartbeat CPU  0 instructions:  197000002 cycles:  191223392 heartbeat IPC: 0.72275 cumulative IPC: 0.78241 (Simulation time: 0 hr 5 min 53 sec) 
Heartbeat CPU  0 instructions:  198000001 cycles:  192632553 heartbeat IPC: 0.70964 cumulative IPC: 0.78159 (Simulation time: 0 hr 5 min 55 sec) 
Heartbeat CPU  0 instructions:  199000002 cycles:  193984974 heartbeat IPC: 0.73942 cumulative IPC: 0.78114 (Simulation time: 0 hr 5 min 57 sec) 
Heartbeat CPU  0 instructions:  200000000 cycles:  195395079 heartbeat IPC: 0.70917 cumulative IPC: 0.78035 (Simulation time: 0 hr 5 min 58 sec) 
Finished CPU 0 instructions: 100000001 cycles: 128148315 cumulative IPC: 0.78035 (Simulation time: 0 hr 5 min 58 sec) 

ChampSim completed all CPUs

[ROI Statistics]
Core_0_instructions 100000001
Core_0_cycles 128148315
Core_0_IPC 0.78035

Core_0_branch_prediction_accuracy 99.52414
Core_0_branch_MPKI 0.08716
Core_0_average_ROB_occupancy_at_mispredict 253.75929

Core_0_L1D_total_access 32680532
Core_0_L1D_total_hit 30285091
Core_0_L1D_total_miss 2395441
Core_0_L1D_loads 26558219
Core_0_L1D_load_hit 24162803
Core_0_L1D_load_miss 2395416
Core_0_L1D_RFOs 6122313
Core_0_L1D_RFO_hit 6122288
Core_0_L1D_RFO_miss 25
Core_0_L1D_prefetches 0
Core_0_L1D_prefetch_hit 0
Core_0_L1D_prefetch_miss 0
Core_0_L1D_writebacks 0
Core_0_L1D_writeback_hit 0
Core_0_L1D_writeback_miss 0
Core_0_L1D_prefetch_requested 0
Core_0_L1D_prefetch_issued 0
Core_0_L1D_prefetch_useful 0
Core_0_L1D_prefetch_useless 0
Core_0_L1D_prefetch_late 0
Core_0_L1D_average_miss_latency 60.15356

Core_0_L1I_total_access 21100571
Core_0_L1I_total_hit 21100494
Core_0_L1I_total_miss 77
Core_0_L1I_loads 21100571
Core_0_L1I_load_hit 21100494
Core_0_L1I_load_miss 77
Core_0_L1I_RFOs 0
Core_0_L1I_RFO_hit 0
Core_0_L1I_RFO_miss 0
Core_0_L1I_prefetches 0
Core_0_L1I_prefetch_hit 0
Core_0_L1I_prefetch_miss 0
Core_0_L1I_writebacks 0
Core_0_L1I_writeback_hit 0
Core_0_L1I_writeback_miss 0
Core_0_L1I_prefetch_requested 0
Core_0_L1I_prefetch_issued 0
Core_0_L1I_prefetch_useful 0
Core_0_L1I_prefetch_useless 0
Core_0_L1I_prefetch_late 0
Core_0_L1I_average_miss_latency 190.12987

Core_0_L2C_total_access 5106033
Core_0_L2C_total_hit 3033438
Core_0_L2C_total_miss 2072595
Core_0_L2C_loads 2395492
Core_0_L2C_load_hit 1904426
Core_0_L2C_load_miss 491066
Core_0_L2C_RFOs 25
Core_0_L2C_RFO_hit 0
Core_0_L2C_RFO_miss 25
Core_0_L2C_prefetches 2030237
Core_0_L2C_prefetch_hit 448833
Core_0_L2C_prefetch_miss 1581404
Core_0_L2C_writebacks 680279
Core_0_L2C_writeback_hit 680179
Core_0_L2C_writeback_miss 100
Core_0_L2C_prefetch_requested 5931296
Core_0_L2C_prefetch_issued 5838364
Core_0_L2C_prefetch_useful 1706681
Core_0_L2C_prefetch_useless 576423
Core_0_L2C_prefetch_late 320035
Core_0_L2C_average_miss_latency 174.53373

Core_0_LLC_total_access 3597317
Core_0_LLC_total_hit 1698749
Core_0_LLC_total_miss 1898568
Core_0_LLC_loads 171054
Core_0_LLC_load_hit 64777
Core_0_LLC_load_miss 106277
Core_0_LLC_RFOs 25
Core_0_LLC_RFO_hit 0
Core_0_LLC_RFO_miss 25
Core_0_LLC_prefetches 2750879
Core_0_LLC_prefetch_hit 970462
Core_0_LLC_prefetch_miss 1780417
Core_0_LLC_writebacks 675359
Core_0_LLC_writeback_hit 663510
Core_0_LLC_writeback_miss 11849
Core_0_LLC_prefetch_requested 2508302
Core_0_LLC_prefetch_issued 2470902
Core_0_LLC_prefetch_useful 51963
Core_0_LLC_prefetch_useless 2318456
Core_0_LLC_prefetch_late 147
Core_0_LLC_average_miss_latency 372.54323

Core_0_major_page_fault 0
Core_0_minor_page_fault 80857

CPU 0 L2C next line prefetcher final stats
LLC Next Line Prefetcher Final Stats: none
Channel_0_RQ_row_buffer_hit 445301
Channel_0_RQ_row_buffer_miss 1441418
Channel_0_WQ_row_buffer_hit 109497
Channel_0_WQ_row_buffer_miss 558500
Channel_0_WQ_full 0
Channel_0_dbus_congested 1163274

avg_congested_cycle 10
