*************************************************
   ChampSim Multicore Out-of-Order Simulator
   Last compiled: Dec 21 2023 19:04:11
*************************************************

trace_0 ./test_trace/462.libquantum-714B.champsimtrace.xz
Initialize SRRIP state
LLC Next Line Prefetcher
warmup_instructions 100000000
simulation_instructions 100000000
champsim_seed 222

num_cpus 1
cpu_freq 4000
dram_io_freq 2400
page_size 4096
block_size 64
max_read_per_cycle 8
max_fill_per_cycle 1
dram_channels 1
dram_ranks 1
dram_banks 8
dram_rows 65536
dram_columns 128
dram_row_size 8
dram_size 4096
dram_pages 1048576

fetch_width 6
decode_width 6
exec_width 4
lq_width 2
sq_width 2
retire_width 4
scheduler_size 128
branch_mispredict_penalty 20
rob_size 256
lq_size 72
sq_size 56
num_instr_destinations_sparc 4
num_instr_destinations 2
num_instr_sources 4

itlb_set 16
itlb_way 8
itlb_rq_size 16
itlb_wq_size 16
itlb_pq_size 0
itlb_mshr_size 8
itlb_latency 1

dtlb_set 16
dtlb_way 4
dtlb_rq_size 16
dtlb_wq_size 16
dtlb_pq_size 0
dtlb_mshr_size 8
dtlb_latency 1

stlb_set 128
stlb_way 12
stlb_rq_size 32
stlb_wq_size 32
stlb_pq_size 0
stlb_mshr_size 16
stlb_latency 8

l1i_size 32
l1i_set 64
l1i_way 8
l1i_rq_size 64
l1i_wq_size 64
l1i_pq_size 8
l1i_mshr_size 8
l1i_latency 1

l1d_size 32
l1d_set 64
l1d_way 8
l1d_rq_size 64
l1d_wq_size 64
l1d_pq_size 8
l1d_mshr_size 16
l1d_latency 4

l2c_size 512
l2c_set 1024
l2c_way 8
l2c_rq_size 32
l2c_wq_size 32
l2c_pq_size 16
l2c_mshr_size 32
l2c_latency 10

llc_size 2048
llc_set 2048
llc_way 16
llc_rq_size 32
llc_wq_size 32
llc_pq_size 32
llc_mshr_size 64
llc_latency 20

dram_channel_width 8
dram_wq_size 64
dram_rq_size 64
tRP 15
tRCD 15
tCAS 12.5
dram_dbus_turn_around_time 30
dram_write_high_wm 56
dram_write_low_wm 48
min_dram_writes_per_switch 16
dram_mtps 2400
dram_dbus_return_time 13


Heartbeat CPU  0 instructions:    1000000 cycles:     493820 heartbeat IPC: 2.02503 cumulative IPC: 2.02503 (Simulation time: 0 hr 0 min 1 sec) 
Heartbeat CPU  0 instructions:    2000003 cycles:     987786 heartbeat IPC: 2.02444 cumulative IPC: 2.02473 (Simulation time: 0 hr 0 min 2 sec) 
Heartbeat CPU  0 instructions:    3000002 cycles:    1481745 heartbeat IPC: 2.02446 cumulative IPC: 2.02464 (Simulation time: 0 hr 0 min 3 sec) 
Heartbeat CPU  0 instructions:    4000000 cycles:    1975706 heartbeat IPC: 2.02445 cumulative IPC: 2.02459 (Simulation time: 0 hr 0 min 3 sec) 
Heartbeat CPU  0 instructions:    5000000 cycles:    2469672 heartbeat IPC: 2.02443 cumulative IPC: 2.02456 (Simulation time: 0 hr 0 min 4 sec) 
Heartbeat CPU  0 instructions:    6000002 cycles:    2963638 heartbeat IPC: 2.02443 cumulative IPC: 2.02454 (Simulation time: 0 hr 0 min 5 sec) 
Heartbeat CPU  0 instructions:    7000000 cycles:    3457599 heartbeat IPC: 2.02445 cumulative IPC: 2.02453 (Simulation time: 0 hr 0 min 6 sec) 
Heartbeat CPU  0 instructions:    8000000 cycles:    3951563 heartbeat IPC: 2.02444 cumulative IPC: 2.02452 (Simulation time: 0 hr 0 min 7 sec) 
Heartbeat CPU  0 instructions:    9000002 cycles:    4461922 heartbeat IPC: 1.95941 cumulative IPC: 2.01707 (Simulation time: 0 hr 0 min 8 sec) 
Heartbeat CPU  0 instructions:   10000002 cycles:    4976972 heartbeat IPC: 1.94156 cumulative IPC: 2.00925 (Simulation time: 0 hr 0 min 9 sec) 
Heartbeat CPU  0 instructions:   11000001 cycles:    5492043 heartbeat IPC: 1.94148 cumulative IPC: 2.00290 (Simulation time: 0 hr 0 min 10 sec) 
Heartbeat CPU  0 instructions:   12000000 cycles:    6007093 heartbeat IPC: 1.94156 cumulative IPC: 1.99764 (Simulation time: 0 hr 0 min 12 sec) 
Heartbeat CPU  0 instructions:   13000000 cycles:    6522190 heartbeat IPC: 1.94138 cumulative IPC: 1.99320 (Simulation time: 0 hr 0 min 13 sec) 
Heartbeat CPU  0 instructions:   14000000 cycles:    7037240 heartbeat IPC: 1.94156 cumulative IPC: 1.98942 (Simulation time: 0 hr 0 min 14 sec) 
Heartbeat CPU  0 instructions:   15000003 cycles:    7552312 heartbeat IPC: 1.94148 cumulative IPC: 1.98615 (Simulation time: 0 hr 0 min 16 sec) 
Heartbeat CPU  0 instructions:   16000000 cycles:    8067362 heartbeat IPC: 1.94155 cumulative IPC: 1.98330 (Simulation time: 0 hr 0 min 17 sec) 
Heartbeat CPU  0 instructions:   17000000 cycles:    8582460 heartbeat IPC: 1.94138 cumulative IPC: 1.98078 (Simulation time: 0 hr 0 min 18 sec) 
Heartbeat CPU  0 instructions:   18000000 cycles:    9097510 heartbeat IPC: 1.94156 cumulative IPC: 1.97856 (Simulation time: 0 hr 0 min 20 sec) 
Heartbeat CPU  0 instructions:   19000003 cycles:    9612579 heartbeat IPC: 1.94149 cumulative IPC: 1.97658 (Simulation time: 0 hr 0 min 21 sec) 
Heartbeat CPU  0 instructions:   20000000 cycles:   10127629 heartbeat IPC: 1.94155 cumulative IPC: 1.97480 (Simulation time: 0 hr 0 min 22 sec) 
Heartbeat CPU  0 instructions:   21000000 cycles:   10642727 heartbeat IPC: 1.94138 cumulative IPC: 1.97318 (Simulation time: 0 hr 0 min 24 sec) 
Heartbeat CPU  0 instructions:   22000000 cycles:   11157777 heartbeat IPC: 1.94156 cumulative IPC: 1.97172 (Simulation time: 0 hr 0 min 25 sec) 
Heartbeat CPU  0 instructions:   23000000 cycles:   11664635 heartbeat IPC: 1.97294 cumulative IPC: 1.97177 (Simulation time: 0 hr 0 min 26 sec) 
Heartbeat CPU  0 instructions:   24000000 cycles:   12078712 heartbeat IPC: 2.41501 cumulative IPC: 1.98697 (Simulation time: 0 hr 0 min 27 sec) 
Heartbeat CPU  0 instructions:   25000000 cycles:   12492790 heartbeat IPC: 2.41500 cumulative IPC: 2.00115 (Simulation time: 0 hr 0 min 28 sec) 
Heartbeat CPU  0 instructions:   26000000 cycles:   12906886 heartbeat IPC: 2.41490 cumulative IPC: 2.01443 (Simulation time: 0 hr 0 min 28 sec) 
Heartbeat CPU  0 instructions:   27000000 cycles:   13320996 heartbeat IPC: 2.41482 cumulative IPC: 2.02688 (Simulation time: 0 hr 0 min 29 sec) 
Heartbeat CPU  0 instructions:   28000000 cycles:   13735081 heartbeat IPC: 2.41496 cumulative IPC: 2.03858 (Simulation time: 0 hr 0 min 30 sec) 
Heartbeat CPU  0 instructions:   29000001 cycles:   14149176 heartbeat IPC: 2.41491 cumulative IPC: 2.04959 (Simulation time: 0 hr 0 min 31 sec) 
Heartbeat CPU  0 instructions:   30000003 cycles:   14563244 heartbeat IPC: 2.41507 cumulative IPC: 2.05998 (Simulation time: 0 hr 0 min 31 sec) 
Heartbeat CPU  0 instructions:   31000001 cycles:   14977346 heartbeat IPC: 2.41486 cumulative IPC: 2.06979 (Simulation time: 0 hr 0 min 32 sec) 
Heartbeat CPU  0 instructions:   32000000 cycles:   15391458 heartbeat IPC: 2.41480 cumulative IPC: 2.07908 (Simulation time: 0 hr 0 min 33 sec) 
Heartbeat CPU  0 instructions:   33000003 cycles:   15805533 heartbeat IPC: 2.41503 cumulative IPC: 2.08788 (Simulation time: 0 hr 0 min 34 sec) 
Heartbeat CPU  0 instructions:   34000001 cycles:   16219602 heartbeat IPC: 2.41505 cumulative IPC: 2.09623 (Simulation time: 0 hr 0 min 34 sec) 
Heartbeat CPU  0 instructions:   35000002 cycles:   16633689 heartbeat IPC: 2.41495 cumulative IPC: 2.10416 (Simulation time: 0 hr 0 min 35 sec) 
Heartbeat CPU  0 instructions:   36000000 cycles:   17047784 heartbeat IPC: 2.41490 cumulative IPC: 2.11171 (Simulation time: 0 hr 0 min 36 sec) 
Heartbeat CPU  0 instructions:   37000000 cycles:   17461901 heartbeat IPC: 2.41478 cumulative IPC: 2.11890 (Simulation time: 0 hr 0 min 36 sec) 
Heartbeat CPU  0 instructions:   38000002 cycles:   17875980 heartbeat IPC: 2.41500 cumulative IPC: 2.12576 (Simulation time: 0 hr 0 min 37 sec) 
Heartbeat CPU  0 instructions:   39000000 cycles:   18290057 heartbeat IPC: 2.41500 cumulative IPC: 2.13231 (Simulation time: 0 hr 0 min 38 sec) 
Heartbeat CPU  0 instructions:   40000000 cycles:   18704150 heartbeat IPC: 2.41492 cumulative IPC: 2.13856 (Simulation time: 0 hr 0 min 39 sec) 
Heartbeat CPU  0 instructions:   41000002 cycles:   19118273 heartbeat IPC: 2.41475 cumulative IPC: 2.14455 (Simulation time: 0 hr 0 min 39 sec) 
Heartbeat CPU  0 instructions:   42000001 cycles:   19532365 heartbeat IPC: 2.41492 cumulative IPC: 2.15028 (Simulation time: 0 hr 0 min 40 sec) 
Heartbeat CPU  0 instructions:   43000001 cycles:   19946429 heartbeat IPC: 2.41509 cumulative IPC: 2.15577 (Simulation time: 0 hr 0 min 41 sec) 
Heartbeat CPU  0 instructions:   44000000 cycles:   20360506 heartbeat IPC: 2.41501 cumulative IPC: 2.16105 (Simulation time: 0 hr 0 min 42 sec) 
Heartbeat CPU  0 instructions:   45000001 cycles:   20774594 heartbeat IPC: 2.41495 cumulative IPC: 2.16611 (Simulation time: 0 hr 0 min 42 sec) 
Heartbeat CPU  0 instructions:   46000001 cycles:   21188718 heartbeat IPC: 2.41474 cumulative IPC: 2.17097 (Simulation time: 0 hr 0 min 43 sec) 
Heartbeat CPU  0 instructions:   47000000 cycles:   21674320 heartbeat IPC: 2.05930 cumulative IPC: 2.16846 (Simulation time: 0 hr 0 min 44 sec) 
Heartbeat CPU  0 instructions:   48000000 cycles:   22161184 heartbeat IPC: 2.05396 cumulative IPC: 2.16595 (Simulation time: 0 hr 0 min 45 sec) 
Heartbeat CPU  0 instructions:   49000000 cycles:   22648046 heartbeat IPC: 2.05397 cumulative IPC: 2.16354 (Simulation time: 0 hr 0 min 45 sec) 
Heartbeat CPU  0 instructions:   50000003 cycles:   23134908 heartbeat IPC: 2.05398 cumulative IPC: 2.16124 (Simulation time: 0 hr 0 min 46 sec) 
Heartbeat CPU  0 instructions:   51000002 cycles:   23621768 heartbeat IPC: 2.05398 cumulative IPC: 2.15903 (Simulation time: 0 hr 0 min 47 sec) 
Heartbeat CPU  0 instructions:   52000000 cycles:   24108628 heartbeat IPC: 2.05397 cumulative IPC: 2.15690 (Simulation time: 0 hr 0 min 48 sec) 
Heartbeat CPU  0 instructions:   53000000 cycles:   24595486 heartbeat IPC: 2.05399 cumulative IPC: 2.15487 (Simulation time: 0 hr 0 min 48 sec) 
Heartbeat CPU  0 instructions:   54000003 cycles:   25082345 heartbeat IPC: 2.05399 cumulative IPC: 2.15291 (Simulation time: 0 hr 0 min 49 sec) 
Heartbeat CPU  0 instructions:   55000002 cycles:   25569205 heartbeat IPC: 2.05398 cumulative IPC: 2.15103 (Simulation time: 0 hr 0 min 50 sec) 
Heartbeat CPU  0 instructions:   56000000 cycles:   26056069 heartbeat IPC: 2.05396 cumulative IPC: 2.14921 (Simulation time: 0 hr 0 min 51 sec) 
Heartbeat CPU  0 instructions:   57000000 cycles:   26542930 heartbeat IPC: 2.05397 cumulative IPC: 2.14746 (Simulation time: 0 hr 0 min 51 sec) 
Heartbeat CPU  0 instructions:   58000000 cycles:   27029792 heartbeat IPC: 2.05397 cumulative IPC: 2.14578 (Simulation time: 0 hr 0 min 52 sec) 
Heartbeat CPU  0 instructions:   59000000 cycles:   27516657 heartbeat IPC: 2.05396 cumulative IPC: 2.14416 (Simulation time: 0 hr 0 min 53 sec) 
Heartbeat CPU  0 instructions:   60000000 cycles:   28003515 heartbeat IPC: 2.05399 cumulative IPC: 2.14259 (Simulation time: 0 hr 0 min 54 sec) 
Heartbeat CPU  0 instructions:   61000003 cycles:   28490373 heartbeat IPC: 2.05399 cumulative IPC: 2.14107 (Simulation time: 0 hr 0 min 54 sec) 
Heartbeat CPU  0 instructions:   62000002 cycles:   28977233 heartbeat IPC: 2.05398 cumulative IPC: 2.13961 (Simulation time: 0 hr 0 min 55 sec) 
Heartbeat CPU  0 instructions:   63000001 cycles:   29464095 heartbeat IPC: 2.05397 cumulative IPC: 2.13820 (Simulation time: 0 hr 0 min 56 sec) 
Heartbeat CPU  0 instructions:   64000000 cycles:   29950952 heartbeat IPC: 2.05399 cumulative IPC: 2.13683 (Simulation time: 0 hr 0 min 57 sec) 
Heartbeat CPU  0 instructions:   65000003 cycles:   30437816 heartbeat IPC: 2.05397 cumulative IPC: 2.13550 (Simulation time: 0 hr 0 min 57 sec) 
Heartbeat CPU  0 instructions:   66000002 cycles:   30924678 heartbeat IPC: 2.05397 cumulative IPC: 2.13422 (Simulation time: 0 hr 0 min 58 sec) 
Heartbeat CPU  0 instructions:   67000001 cycles:   31411541 heartbeat IPC: 2.05396 cumulative IPC: 2.13297 (Simulation time: 0 hr 0 min 59 sec) 
Heartbeat CPU  0 instructions:   68000000 cycles:   31898400 heartbeat IPC: 2.05398 cumulative IPC: 2.13177 (Simulation time: 0 hr 1 min 0 sec) 
Heartbeat CPU  0 instructions:   69000000 cycles:   32385261 heartbeat IPC: 2.05397 cumulative IPC: 2.13060 (Simulation time: 0 hr 1 min 0 sec) 
Heartbeat CPU  0 instructions:   70000002 cycles:   32898461 heartbeat IPC: 1.94856 cumulative IPC: 2.12776 (Simulation time: 0 hr 1 min 2 sec) 
Heartbeat CPU  0 instructions:   71000001 cycles:   33414087 heartbeat IPC: 1.93939 cumulative IPC: 2.12485 (Simulation time: 0 hr 1 min 3 sec) 
Heartbeat CPU  0 instructions:   72000000 cycles:   33929695 heartbeat IPC: 1.93946 cumulative IPC: 2.12204 (Simulation time: 0 hr 1 min 4 sec) 
Heartbeat CPU  0 instructions:   73000002 cycles:   34445351 heartbeat IPC: 1.93928 cumulative IPC: 2.11930 (Simulation time: 0 hr 1 min 6 sec) 
Heartbeat CPU  0 instructions:   74000002 cycles:   34960959 heartbeat IPC: 1.93946 cumulative IPC: 2.11665 (Simulation time: 0 hr 1 min 7 sec) 
Heartbeat CPU  0 instructions:   75000001 cycles:   35476587 heartbeat IPC: 1.93938 cumulative IPC: 2.11407 (Simulation time: 0 hr 1 min 8 sec) 
Heartbeat CPU  0 instructions:   76000000 cycles:   35992195 heartbeat IPC: 1.93946 cumulative IPC: 2.11157 (Simulation time: 0 hr 1 min 10 sec) 
Heartbeat CPU  0 instructions:   77000001 cycles:   36507850 heartbeat IPC: 1.93928 cumulative IPC: 2.10914 (Simulation time: 0 hr 1 min 11 sec) 
Heartbeat CPU  0 instructions:   78000001 cycles:   37023458 heartbeat IPC: 1.93946 cumulative IPC: 2.10677 (Simulation time: 0 hr 1 min 12 sec) 
Heartbeat CPU  0 instructions:   79000000 cycles:   37539089 heartbeat IPC: 1.93937 cumulative IPC: 2.10447 (Simulation time: 0 hr 1 min 14 sec) 
Heartbeat CPU  0 instructions:   80000000 cycles:   38054697 heartbeat IPC: 1.93946 cumulative IPC: 2.10224 (Simulation time: 0 hr 1 min 15 sec) 
Heartbeat CPU  0 instructions:   81000000 cycles:   38570352 heartbeat IPC: 1.93928 cumulative IPC: 2.10006 (Simulation time: 0 hr 1 min 16 sec) 
Heartbeat CPU  0 instructions:   82000000 cycles:   39085960 heartbeat IPC: 1.93946 cumulative IPC: 2.09794 (Simulation time: 0 hr 1 min 17 sec) 
Heartbeat CPU  0 instructions:   83000003 cycles:   39601589 heartbeat IPC: 1.93938 cumulative IPC: 2.09588 (Simulation time: 0 hr 1 min 19 sec) 
Heartbeat CPU  0 instructions:   84000000 cycles:   40093563 heartbeat IPC: 2.03262 cumulative IPC: 2.09510 (Simulation time: 0 hr 1 min 20 sec) 
Heartbeat CPU  0 instructions:   85000000 cycles:   40507748 heartbeat IPC: 2.41438 cumulative IPC: 2.09836 (Simulation time: 0 hr 1 min 21 sec) 
Heartbeat CPU  0 instructions:   86000001 cycles:   40921930 heartbeat IPC: 2.41440 cumulative IPC: 2.10156 (Simulation time: 0 hr 1 min 21 sec) 
Heartbeat CPU  0 instructions:   87000003 cycles:   41336130 heartbeat IPC: 2.41430 cumulative IPC: 2.10470 (Simulation time: 0 hr 1 min 22 sec) 
Heartbeat CPU  0 instructions:   88000000 cycles:   41750356 heartbeat IPC: 2.41413 cumulative IPC: 2.10777 (Simulation time: 0 hr 1 min 23 sec) 
Heartbeat CPU  0 instructions:   89000001 cycles:   42164552 heartbeat IPC: 2.41432 cumulative IPC: 2.11078 (Simulation time: 0 hr 1 min 24 sec) 
Heartbeat CPU  0 instructions:   90000001 cycles:   42578726 heartbeat IPC: 2.41444 cumulative IPC: 2.11373 (Simulation time: 0 hr 1 min 24 sec) 
Heartbeat CPU  0 instructions:   91000000 cycles:   42992905 heartbeat IPC: 2.41441 cumulative IPC: 2.11663 (Simulation time: 0 hr 1 min 25 sec) 
Heartbeat CPU  0 instructions:   92000000 cycles:   43407099 heartbeat IPC: 2.41433 cumulative IPC: 2.11947 (Simulation time: 0 hr 1 min 26 sec) 
Heartbeat CPU  0 instructions:   93000003 cycles:   43821331 heartbeat IPC: 2.41411 cumulative IPC: 2.12225 (Simulation time: 0 hr 1 min 27 sec) 
Heartbeat CPU  0 instructions:   94000001 cycles:   44235506 heartbeat IPC: 2.41443 cumulative IPC: 2.12499 (Simulation time: 0 hr 1 min 27 sec) 
Heartbeat CPU  0 instructions:   95000002 cycles:   44649686 heartbeat IPC: 2.41441 cumulative IPC: 2.12767 (Simulation time: 0 hr 1 min 28 sec) 
Heartbeat CPU  0 instructions:   96000000 cycles:   45063867 heartbeat IPC: 2.41440 cumulative IPC: 2.13031 (Simulation time: 0 hr 1 min 29 sec) 
Heartbeat CPU  0 instructions:   97000000 cycles:   45478113 heartbeat IPC: 2.41402 cumulative IPC: 2.13289 (Simulation time: 0 hr 1 min 29 sec) 
Heartbeat CPU  0 instructions:   98000003 cycles:   45892312 heartbeat IPC: 2.41431 cumulative IPC: 2.13543 (Simulation time: 0 hr 1 min 30 sec) 
Heartbeat CPU  0 instructions:   99000001 cycles:   46306479 heartbeat IPC: 2.41448 cumulative IPC: 2.13793 (Simulation time: 0 hr 1 min 31 sec) 
Heartbeat CPU  0 instructions:  100000000 cycles:   46720669 heartbeat IPC: 2.41435 cumulative IPC: 2.14038 (Simulation time: 0 hr 1 min 32 sec) 

Warmup complete CPU  0 instructions:  100000001 cycles:   46720671 (Simulation time: 0 hr 1 min 32 sec) 

Heartbeat CPU  0 instructions:  101000003 cycles:   48207005 heartbeat IPC: 0.67280 cumulative IPC: 0.67280 (Simulation time: 0 hr 1 min 33 sec) 
Heartbeat CPU  0 instructions:  102000003 cycles:   49706059 heartbeat IPC: 0.66709 cumulative IPC: 0.66993 (Simulation time: 0 hr 1 min 35 sec) 
Heartbeat CPU  0 instructions:  103000001 cycles:   51201583 heartbeat IPC: 0.66866 cumulative IPC: 0.66951 (Simulation time: 0 hr 1 min 36 sec) 
Heartbeat CPU  0 instructions:  104000000 cycles:   52696693 heartbeat IPC: 0.66885 cumulative IPC: 0.66934 (Simulation time: 0 hr 1 min 37 sec) 
Heartbeat CPU  0 instructions:  105000000 cycles:   54193393 heartbeat IPC: 0.66814 cumulative IPC: 0.66910 (Simulation time: 0 hr 1 min 39 sec) 
Heartbeat CPU  0 instructions:  106000002 cycles:   55693493 heartbeat IPC: 0.66662 cumulative IPC: 0.66869 (Simulation time: 0 hr 1 min 40 sec) 
Heartbeat CPU  0 instructions:  107000000 cycles:   57196408 heartbeat IPC: 0.66537 cumulative IPC: 0.66821 (Simulation time: 0 hr 1 min 42 sec) 
Heartbeat CPU  0 instructions:  108000000 cycles:   58732875 heartbeat IPC: 0.65084 cumulative IPC: 0.66599 (Simulation time: 0 hr 1 min 43 sec) 
Heartbeat CPU  0 instructions:  109000000 cycles:   60318935 heartbeat IPC: 0.63049 cumulative IPC: 0.66185 (Simulation time: 0 hr 1 min 45 sec) 
Heartbeat CPU  0 instructions:  110000001 cycles:   61938781 heartbeat IPC: 0.61734 cumulative IPC: 0.65711 (Simulation time: 0 hr 1 min 46 sec) 
Heartbeat CPU  0 instructions:  111000001 cycles:   63564602 heartbeat IPC: 0.61507 cumulative IPC: 0.65305 (Simulation time: 0 hr 1 min 48 sec) 
Heartbeat CPU  0 instructions:  112000000 cycles:   65196102 heartbeat IPC: 0.61293 cumulative IPC: 0.64951 (Simulation time: 0 hr 1 min 49 sec) 
Heartbeat CPU  0 instructions:  113000002 cycles:   66815298 heartbeat IPC: 0.61759 cumulative IPC: 0.64694 (Simulation time: 0 hr 1 min 51 sec) 
Heartbeat CPU  0 instructions:  114000002 cycles:   68447384 heartbeat IPC: 0.61271 cumulative IPC: 0.64437 (Simulation time: 0 hr 1 min 52 sec) 
Heartbeat CPU  0 instructions:  115000003 cycles:   70073392 heartbeat IPC: 0.61500 cumulative IPC: 0.64232 (Simulation time: 0 hr 1 min 54 sec) 
Heartbeat CPU  0 instructions:  116000000 cycles:   71697589 heartbeat IPC: 0.61569 cumulative IPC: 0.64059 (Simulation time: 0 hr 1 min 55 sec) 
Heartbeat CPU  0 instructions:  117000000 cycles:   73331515 heartbeat IPC: 0.61202 cumulative IPC: 0.63884 (Simulation time: 0 hr 1 min 57 sec) 
Heartbeat CPU  0 instructions:  118000000 cycles:   74959231 heartbeat IPC: 0.61436 cumulative IPC: 0.63743 (Simulation time: 0 hr 1 min 58 sec) 
Heartbeat CPU  0 instructions:  119000001 cycles:   76583627 heartbeat IPC: 0.61561 cumulative IPC: 0.63624 (Simulation time: 0 hr 1 min 59 sec) 
Heartbeat CPU  0 instructions:  120000000 cycles:   78217114 heartbeat IPC: 0.61219 cumulative IPC: 0.63499 (Simulation time: 0 hr 2 min 1 sec) 
Heartbeat CPU  0 instructions:  121000000 cycles:   79836807 heartbeat IPC: 0.61740 cumulative IPC: 0.63413 (Simulation time: 0 hr 2 min 2 sec) 
Heartbeat CPU  0 instructions:  122000002 cycles:   81464990 heartbeat IPC: 0.61418 cumulative IPC: 0.63320 (Simulation time: 0 hr 2 min 4 sec) 
Heartbeat CPU  0 instructions:  123000002 cycles:   83100542 heartbeat IPC: 0.61141 cumulative IPC: 0.63222 (Simulation time: 0 hr 2 min 5 sec) 
Heartbeat CPU  0 instructions:  124000000 cycles:   84731208 heartbeat IPC: 0.61325 cumulative IPC: 0.63140 (Simulation time: 0 hr 2 min 7 sec) 
Heartbeat CPU  0 instructions:  125000003 cycles:   86361693 heartbeat IPC: 0.61332 cumulative IPC: 0.63066 (Simulation time: 0 hr 2 min 8 sec) 
Heartbeat CPU  0 instructions:  126000000 cycles:   87992632 heartbeat IPC: 0.61314 cumulative IPC: 0.62997 (Simulation time: 0 hr 2 min 10 sec) 
Heartbeat CPU  0 instructions:  127000000 cycles:   89614914 heartbeat IPC: 0.61642 cumulative IPC: 0.62946 (Simulation time: 0 hr 2 min 11 sec) 
Heartbeat CPU  0 instructions:  128000000 cycles:   91249052 heartbeat IPC: 0.61194 cumulative IPC: 0.62881 (Simulation time: 0 hr 2 min 13 sec) 
Heartbeat CPU  0 instructions:  129000001 cycles:   92884147 heartbeat IPC: 0.61159 cumulative IPC: 0.62820 (Simulation time: 0 hr 2 min 14 sec) 
Heartbeat CPU  0 instructions:  130000001 cycles:   94505952 heartbeat IPC: 0.61660 cumulative IPC: 0.62781 (Simulation time: 0 hr 2 min 16 sec) 
Heartbeat CPU  0 instructions:  131000000 cycles:   96702017 heartbeat IPC: 0.45536 cumulative IPC: 0.62023 (Simulation time: 0 hr 2 min 18 sec) 
Heartbeat CPU  0 instructions:  132000000 cycles:   99817522 heartbeat IPC: 0.32098 cumulative IPC: 0.60267 (Simulation time: 0 hr 2 min 20 sec) 
Heartbeat CPU  0 instructions:  133000000 cycles:  102930329 heartbeat IPC: 0.32125 cumulative IPC: 0.58709 (Simulation time: 0 hr 2 min 22 sec) 
Heartbeat CPU  0 instructions:  134000000 cycles:  106048299 heartbeat IPC: 0.32072 cumulative IPC: 0.57309 (Simulation time: 0 hr 2 min 24 sec) 
Heartbeat CPU  0 instructions:  135000000 cycles:  109164004 heartbeat IPC: 0.32095 cumulative IPC: 0.56051 (Simulation time: 0 hr 2 min 27 sec) 
Heartbeat CPU  0 instructions:  136000000 cycles:  112274977 heartbeat IPC: 0.32144 cumulative IPC: 0.54916 (Simulation time: 0 hr 2 min 29 sec) 
Heartbeat CPU  0 instructions:  137000000 cycles:  115391904 heartbeat IPC: 0.32083 cumulative IPC: 0.53880 (Simulation time: 0 hr 2 min 31 sec) 
Heartbeat CPU  0 instructions:  138000000 cycles:  118511419 heartbeat IPC: 0.32056 cumulative IPC: 0.52932 (Simulation time: 0 hr 2 min 33 sec) 
Heartbeat CPU  0 instructions:  139000000 cycles:  121621272 heartbeat IPC: 0.32156 cumulative IPC: 0.52069 (Simulation time: 0 hr 2 min 36 sec) 
Heartbeat CPU  0 instructions:  140000000 cycles:  124728475 heartbeat IPC: 0.32183 cumulative IPC: 0.51277 (Simulation time: 0 hr 2 min 38 sec) 
Heartbeat CPU  0 instructions:  141000000 cycles:  127837209 heartbeat IPC: 0.32167 cumulative IPC: 0.50545 (Simulation time: 0 hr 2 min 40 sec) 
Heartbeat CPU  0 instructions:  142000000 cycles:  130945587 heartbeat IPC: 0.32171 cumulative IPC: 0.49866 (Simulation time: 0 hr 2 min 42 sec) 
Heartbeat CPU  0 instructions:  143000000 cycles:  134053317 heartbeat IPC: 0.32178 cumulative IPC: 0.49237 (Simulation time: 0 hr 2 min 45 sec) 
Heartbeat CPU  0 instructions:  144000000 cycles:  137161051 heartbeat IPC: 0.32178 cumulative IPC: 0.48651 (Simulation time: 0 hr 2 min 47 sec) 
Heartbeat CPU  0 instructions:  145000002 cycles:  140093198 heartbeat IPC: 0.34105 cumulative IPC: 0.48194 (Simulation time: 0 hr 2 min 49 sec) 
Heartbeat CPU  0 instructions:  146000000 cycles:  142523566 heartbeat IPC: 0.41146 cumulative IPC: 0.48015 (Simulation time: 0 hr 2 min 51 sec) 
Heartbeat CPU  0 instructions:  147000000 cycles:  144816726 heartbeat IPC: 0.43608 cumulative IPC: 0.47912 (Simulation time: 0 hr 2 min 53 sec) 
Heartbeat CPU  0 instructions:  148000000 cycles:  147006300 heartbeat IPC: 0.45671 cumulative IPC: 0.47863 (Simulation time: 0 hr 2 min 54 sec) 
Heartbeat CPU  0 instructions:  149000000 cycles:  148764585 heartbeat IPC: 0.56874 cumulative IPC: 0.48019 (Simulation time: 0 hr 2 min 56 sec) 
Heartbeat CPU  0 instructions:  150000001 cycles:  150274225 heartbeat IPC: 0.66241 cumulative IPC: 0.48284 (Simulation time: 0 hr 2 min 57 sec) 
Heartbeat CPU  0 instructions:  151000000 cycles:  151780197 heartbeat IPC: 0.66402 cumulative IPC: 0.48544 (Simulation time: 0 hr 2 min 59 sec) 
Heartbeat CPU  0 instructions:  152000000 cycles:  153279075 heartbeat IPC: 0.66717 cumulative IPC: 0.48800 (Simulation time: 0 hr 3 min 0 sec) 
Heartbeat CPU  0 instructions:  153000001 cycles:  154783198 heartbeat IPC: 0.66484 cumulative IPC: 0.49046 (Simulation time: 0 hr 3 min 2 sec) 
Heartbeat CPU  0 instructions:  154000003 cycles:  156288338 heartbeat IPC: 0.66439 cumulative IPC: 0.49285 (Simulation time: 0 hr 3 min 3 sec) 
Heartbeat CPU  0 instructions:  155000001 cycles:  157795953 heartbeat IPC: 0.66330 cumulative IPC: 0.49516 (Simulation time: 0 hr 3 min 5 sec) 
Heartbeat CPU  0 instructions:  156000000 cycles:  159301300 heartbeat IPC: 0.66430 cumulative IPC: 0.49742 (Simulation time: 0 hr 3 min 6 sec) 
Heartbeat CPU  0 instructions:  157000002 cycles:  160806073 heartbeat IPC: 0.66455 cumulative IPC: 0.49963 (Simulation time: 0 hr 3 min 8 sec) 
Heartbeat CPU  0 instructions:  158000000 cycles:  162310434 heartbeat IPC: 0.66473 cumulative IPC: 0.50177 (Simulation time: 0 hr 3 min 9 sec) 
Heartbeat CPU  0 instructions:  159000002 cycles:  163809670 heartbeat IPC: 0.66701 cumulative IPC: 0.50389 (Simulation time: 0 hr 3 min 11 sec) 
Heartbeat CPU  0 instructions:  160000000 cycles:  165314563 heartbeat IPC: 0.66450 cumulative IPC: 0.50593 (Simulation time: 0 hr 3 min 12 sec) 
Heartbeat CPU  0 instructions:  161000000 cycles:  166815028 heartbeat IPC: 0.66646 cumulative IPC: 0.50793 (Simulation time: 0 hr 3 min 14 sec) 
Heartbeat CPU  0 instructions:  162000002 cycles:  168319214 heartbeat IPC: 0.66481 cumulative IPC: 0.50987 (Simulation time: 0 hr 3 min 15 sec) 
Heartbeat CPU  0 instructions:  163000000 cycles:  169815758 heartbeat IPC: 0.66820 cumulative IPC: 0.51180 (Simulation time: 0 hr 3 min 17 sec) 
Heartbeat CPU  0 instructions:  164000000 cycles:  171322725 heartbeat IPC: 0.66358 cumulative IPC: 0.51364 (Simulation time: 0 hr 3 min 18 sec) 
Heartbeat CPU  0 instructions:  165000001 cycles:  172823400 heartbeat IPC: 0.66637 cumulative IPC: 0.51545 (Simulation time: 0 hr 3 min 20 sec) 
Heartbeat CPU  0 instructions:  166000003 cycles:  174330262 heartbeat IPC: 0.66363 cumulative IPC: 0.51720 (Simulation time: 0 hr 3 min 21 sec) 
Heartbeat CPU  0 instructions:  167000001 cycles:  175829796 heartbeat IPC: 0.66687 cumulative IPC: 0.51894 (Simulation time: 0 hr 3 min 23 sec) 
Heartbeat CPU  0 instructions:  168000000 cycles:  177347008 heartbeat IPC: 0.65910 cumulative IPC: 0.52057 (Simulation time: 0 hr 3 min 24 sec) 
Heartbeat CPU  0 instructions:  169000000 cycles:  178846929 heartbeat IPC: 0.66670 cumulative IPC: 0.52223 (Simulation time: 0 hr 3 min 25 sec) 
Heartbeat CPU  0 instructions:  170000003 cycles:  180511535 heartbeat IPC: 0.60074 cumulative IPC: 0.52320 (Simulation time: 0 hr 3 min 27 sec) 
Heartbeat CPU  0 instructions:  171000001 cycles:  182204211 heartbeat IPC: 0.59078 cumulative IPC: 0.52405 (Simulation time: 0 hr 3 min 29 sec) 
Heartbeat CPU  0 instructions:  172000000 cycles:  183903846 heartbeat IPC: 0.58836 cumulative IPC: 0.52485 (Simulation time: 0 hr 3 min 30 sec) 
Heartbeat CPU  0 instructions:  173000001 cycles:  185604217 heartbeat IPC: 0.58811 cumulative IPC: 0.52562 (Simulation time: 0 hr 3 min 32 sec) 
Heartbeat CPU  0 instructions:  174000000 cycles:  187303773 heartbeat IPC: 0.58839 cumulative IPC: 0.52638 (Simulation time: 0 hr 3 min 33 sec) 
Heartbeat CPU  0 instructions:  175000002 cycles:  189002239 heartbeat IPC: 0.58877 cumulative IPC: 0.52712 (Simulation time: 0 hr 3 min 35 sec) 
Heartbeat CPU  0 instructions:  176000000 cycles:  190702516 heartbeat IPC: 0.58814 cumulative IPC: 0.52784 (Simulation time: 0 hr 3 min 37 sec) 
Heartbeat CPU  0 instructions:  177000002 cycles:  192398215 heartbeat IPC: 0.58973 cumulative IPC: 0.52856 (Simulation time: 0 hr 3 min 38 sec) 
Heartbeat CPU  0 instructions:  178000000 cycles:  194103581 heartbeat IPC: 0.58638 cumulative IPC: 0.52923 (Simulation time: 0 hr 3 min 40 sec) 
Heartbeat CPU  0 instructions:  179000003 cycles:  195804076 heartbeat IPC: 0.58807 cumulative IPC: 0.52990 (Simulation time: 0 hr 3 min 41 sec) 
Heartbeat CPU  0 instructions:  180000000 cycles:  197506548 heartbeat IPC: 0.58738 cumulative IPC: 0.53055 (Simulation time: 0 hr 3 min 43 sec) 
Heartbeat CPU  0 instructions:  181000000 cycles:  199200854 heartbeat IPC: 0.59021 cumulative IPC: 0.53122 (Simulation time: 0 hr 3 min 44 sec) 
Heartbeat CPU  0 instructions:  182000001 cycles:  200897292 heartbeat IPC: 0.58947 cumulative IPC: 0.53186 (Simulation time: 0 hr 3 min 46 sec) 
Heartbeat CPU  0 instructions:  183000000 cycles:  202594805 heartbeat IPC: 0.58910 cumulative IPC: 0.53248 (Simulation time: 0 hr 3 min 48 sec) 
Heartbeat CPU  0 instructions:  184000000 cycles:  204297421 heartbeat IPC: 0.58733 cumulative IPC: 0.53307 (Simulation time: 0 hr 3 min 49 sec) 
Heartbeat CPU  0 instructions:  185000001 cycles:  205999841 heartbeat IPC: 0.58740 cumulative IPC: 0.53365 (Simulation time: 0 hr 3 min 51 sec) 
Heartbeat CPU  0 instructions:  186000002 cycles:  207693229 heartbeat IPC: 0.59053 cumulative IPC: 0.53425 (Simulation time: 0 hr 3 min 52 sec) 
Heartbeat CPU  0 instructions:  187000000 cycles:  209392294 heartbeat IPC: 0.58856 cumulative IPC: 0.53482 (Simulation time: 0 hr 3 min 54 sec) 
Heartbeat CPU  0 instructions:  188000000 cycles:  211093048 heartbeat IPC: 0.58797 cumulative IPC: 0.53537 (Simulation time: 0 hr 3 min 55 sec) 
Heartbeat CPU  0 instructions:  189000001 cycles:  212789954 heartbeat IPC: 0.58931 cumulative IPC: 0.53592 (Simulation time: 0 hr 3 min 57 sec) 
Heartbeat CPU  0 instructions:  190000000 cycles:  214497653 heartbeat IPC: 0.58558 cumulative IPC: 0.53643 (Simulation time: 0 hr 3 min 59 sec) 
Heartbeat CPU  0 instructions:  191000000 cycles:  216214723 heartbeat IPC: 0.58239 cumulative IPC: 0.53689 (Simulation time: 0 hr 4 min 0 sec) 
Heartbeat CPU  0 instructions:  192000000 cycles:  218384972 heartbeat IPC: 0.46078 cumulative IPC: 0.53593 (Simulation time: 0 hr 4 min 2 sec) 
Heartbeat CPU  0 instructions:  193000000 cycles:  221490226 heartbeat IPC: 0.32203 cumulative IPC: 0.53213 (Simulation time: 0 hr 4 min 4 sec) 
Heartbeat CPU  0 instructions:  194000000 cycles:  224591144 heartbeat IPC: 0.32249 cumulative IPC: 0.52847 (Simulation time: 0 hr 4 min 7 sec) 
Heartbeat CPU  0 instructions:  195000000 cycles:  227696099 heartbeat IPC: 0.32207 cumulative IPC: 0.52493 (Simulation time: 0 hr 4 min 9 sec) 
Heartbeat CPU  0 instructions:  196000000 cycles:  230795198 heartbeat IPC: 0.32267 cumulative IPC: 0.52153 (Simulation time: 0 hr 4 min 11 sec) 
Heartbeat CPU  0 instructions:  197000000 cycles:  233887944 heartbeat IPC: 0.32334 cumulative IPC: 0.51825 (Simulation time: 0 hr 4 min 13 sec) 
Heartbeat CPU  0 instructions:  198000000 cycles:  236984642 heartbeat IPC: 0.32292 cumulative IPC: 0.51507 (Simulation time: 0 hr 4 min 16 sec) 
Heartbeat CPU  0 instructions:  199000000 cycles:  240087633 heartbeat IPC: 0.32227 cumulative IPC: 0.51198 (Simulation time: 0 hr 4 min 18 sec) 
Heartbeat CPU  0 instructions:  200000000 cycles:  243180937 heartbeat IPC: 0.32328 cumulative IPC: 0.50901 (Simulation time: 0 hr 4 min 20 sec) 
Finished CPU 0 instructions: 100000000 cycles: 196460279 cumulative IPC: 0.50901 (Simulation time: 0 hr 4 min 20 sec) 

ChampSim completed all CPUs

[ROI Statistics]
Core_0_instructions 100000000
Core_0_cycles 196460279
Core_0_IPC 0.50901

Core_0_branch_prediction_accuracy 99.58952
Core_0_branch_MPKI 0.70683
Core_0_average_ROB_occupancy_at_mispredict 218.76929

Core_0_L1D_total_access 13057105
Core_0_L1D_total_hit 10480882
Core_0_L1D_total_miss 2576223
Core_0_L1D_loads 9564130
Core_0_L1D_load_hit 6987927
Core_0_L1D_load_miss 2576203
Core_0_L1D_RFOs 3492975
Core_0_L1D_RFO_hit 3492955
Core_0_L1D_RFO_miss 20
Core_0_L1D_prefetches 0
Core_0_L1D_prefetch_hit 0
Core_0_L1D_prefetch_miss 0
Core_0_L1D_writebacks 0
Core_0_L1D_writeback_hit 0
Core_0_L1D_writeback_miss 0
Core_0_L1D_prefetch_requested 0
Core_0_L1D_prefetch_issued 0
Core_0_L1D_prefetch_useful 0
Core_0_L1D_prefetch_useless 0
Core_0_L1D_prefetch_late 0
Core_0_L1D_average_miss_latency 147.56689

Core_0_L1I_total_access 33466297
Core_0_L1I_total_hit 33466296
Core_0_L1I_total_miss 1
Core_0_L1I_loads 33466297
Core_0_L1I_load_hit 33466296
Core_0_L1I_load_miss 1
Core_0_L1I_RFOs 0
Core_0_L1I_RFO_hit 0
Core_0_L1I_RFO_miss 0
Core_0_L1I_prefetches 0
Core_0_L1I_prefetch_hit 0
Core_0_L1I_prefetch_miss 0
Core_0_L1I_writebacks 0
Core_0_L1I_writeback_hit 0
Core_0_L1I_writeback_miss 0
Core_0_L1I_prefetch_requested 0
Core_0_L1I_prefetch_issued 0
Core_0_L1I_prefetch_useful 0
Core_0_L1I_prefetch_useless 0
Core_0_L1I_prefetch_late 0
Core_0_L1I_average_miss_latency 231.00000

Core_0_L2C_total_access 3526369
Core_0_L2C_total_hit 950145
Core_0_L2C_total_miss 2576224
Core_0_L2C_loads 2576204
Core_0_L2C_load_hit 0
Core_0_L2C_load_miss 2576204
Core_0_L2C_RFOs 20
Core_0_L2C_RFO_hit 0
Core_0_L2C_RFO_miss 20
Core_0_L2C_prefetches 0
Core_0_L2C_prefetch_hit 0
Core_0_L2C_prefetch_miss 0
Core_0_L2C_writebacks 950145
Core_0_L2C_writeback_hit 950145
Core_0_L2C_writeback_miss 0
Core_0_L2C_prefetch_requested 0
Core_0_L2C_prefetch_issued 0
Core_0_L2C_prefetch_useful 0
Core_0_L2C_prefetch_useless 0
Core_0_L2C_prefetch_late 0
Core_0_L2C_average_miss_latency 133.45896

Core_0_LLC_total_access 4058455
Core_0_LLC_total_hit 1235993
Core_0_LLC_total_miss 2822462
Core_0_LLC_loads 2576204
Core_0_LLC_load_hit 539512
Core_0_LLC_load_miss 2036692
Core_0_LLC_RFOs 20
Core_0_LLC_RFO_hit 0
Core_0_LLC_RFO_miss 20
Core_0_LLC_prefetches 539528
Core_0_LLC_prefetch_hit 0
Core_0_LLC_prefetch_miss 539528
Core_0_LLC_writebacks 942703
Core_0_LLC_writeback_hit 696481
Core_0_LLC_writeback_miss 246222
Core_0_LLC_prefetch_requested 5228991
Core_0_LLC_prefetch_issued 5147289
Core_0_LLC_prefetch_useful 3150819
Core_0_LLC_prefetch_useless 43
Core_0_LLC_prefetch_late 683267
Core_0_LLC_average_miss_latency 123.96357

Core_0_major_page_fault 0
Core_0_minor_page_fault 8199

LLC Next Line Prefetcher Final Stats: none
Channel_0_RQ_row_buffer_hit 1452306
Channel_0_RQ_row_buffer_miss 1123934
Channel_0_WQ_row_buffer_hit 448402
Channel_0_WQ_row_buffer_miss 469678
Channel_0_WQ_full 0
Channel_0_dbus_congested 1442400

avg_congested_cycle 9
