*************************************************
   ChampSim Multicore Out-of-Order Simulator
   Last compiled: Dec 21 2023 20:02:35
*************************************************

trace_0 ./test_trace/462.libquantum-714B.champsimtrace.xz
CPU 0 L1D next line prefetcher
CPU 0 L2C next line prefetcher
Initialize DRRIP state
Assign rand_sets[0]: 454  LLC: 2048
rand_sets[0]: 454
Assign rand_sets[1]: 1662  LLC: 2048
rand_sets[1]: 1662
Assign rand_sets[2]: 1921  LLC: 2048
rand_sets[2]: 1921
Assign rand_sets[3]: 1131  LLC: 2048
rand_sets[3]: 1131
Assign rand_sets[4]: 331  LLC: 2048
rand_sets[4]: 331
Assign rand_sets[5]: 1531  LLC: 2048
rand_sets[5]: 1531
Assign rand_sets[6]: 482  LLC: 2048
rand_sets[6]: 482
Assign rand_sets[7]: 1275  LLC: 2048
rand_sets[7]: 1275
Assign rand_sets[8]: 1876  LLC: 2048
rand_sets[8]: 1876
Assign rand_sets[9]: 2038  LLC: 2048
rand_sets[9]: 2038
Assign rand_sets[10]: 701  LLC: 2048
rand_sets[10]: 701
Assign rand_sets[11]: 479  LLC: 2048
rand_sets[11]: 479
Assign rand_sets[12]: 892  LLC: 2048
rand_sets[12]: 892
Assign rand_sets[13]: 1820  LLC: 2048
rand_sets[13]: 1820
Assign rand_sets[14]: 1505  LLC: 2048
rand_sets[14]: 1505
Assign rand_sets[15]: 1159  LLC: 2048
rand_sets[15]: 1159
Assign rand_sets[16]: 513  LLC: 2048
rand_sets[16]: 513
Assign rand_sets[17]: 703  LLC: 2048
rand_sets[17]: 703
Assign rand_sets[18]: 561  LLC: 2048
rand_sets[18]: 561
Assign rand_sets[19]: 990  LLC: 2048
rand_sets[19]: 990
Assign rand_sets[20]: 342  LLC: 2048
rand_sets[20]: 342
Assign rand_sets[21]: 882  LLC: 2048
rand_sets[21]: 882
Assign rand_sets[22]: 15  LLC: 2048
rand_sets[22]: 15
Assign rand_sets[23]: 71  LLC: 2048
rand_sets[23]: 71
Assign rand_sets[24]: 1127  LLC: 2048
rand_sets[24]: 1127
Assign rand_sets[25]: 1382  LLC: 2048
rand_sets[25]: 1382
Assign rand_sets[26]: 647  LLC: 2048
rand_sets[26]: 647
Assign rand_sets[27]: 857  LLC: 2048
rand_sets[27]: 857
Assign rand_sets[28]: 1450  LLC: 2048
rand_sets[28]: 1450
Assign rand_sets[29]: 1160  LLC: 2048
rand_sets[29]: 1160
Assign rand_sets[30]: 1852  LLC: 2048
rand_sets[30]: 1852
Assign rand_sets[31]: 1881  LLC: 2048
rand_sets[31]: 1881
Assign rand_sets[32]: 1770  LLC: 2048
rand_sets[32]: 1770
Assign rand_sets[33]: 1622  LLC: 2048
rand_sets[33]: 1622
Assign rand_sets[34]: 275  LLC: 2048
rand_sets[34]: 275
Assign rand_sets[35]: 635  LLC: 2048
rand_sets[35]: 635
Assign rand_sets[36]: 466  LLC: 2048
rand_sets[36]: 466
Assign rand_sets[37]: 1413  LLC: 2048
rand_sets[37]: 1413
Assign rand_sets[38]: 417  LLC: 2048
rand_sets[38]: 417
Assign rand_sets[39]: 472  LLC: 2048
rand_sets[39]: 472
Assign rand_sets[40]: 1340  LLC: 2048
rand_sets[40]: 1340
Assign rand_sets[41]: 852  LLC: 2048
rand_sets[41]: 852
Assign rand_sets[42]: 1365  LLC: 2048
rand_sets[42]: 1365
Assign rand_sets[43]: 47  LLC: 2048
rand_sets[43]: 47
Assign rand_sets[44]: 823  LLC: 2048
rand_sets[44]: 823
Assign rand_sets[45]: 686  LLC: 2048
rand_sets[45]: 686
Assign rand_sets[46]: 1637  LLC: 2048
rand_sets[46]: 1637
Assign rand_sets[47]: 1115  LLC: 2048
rand_sets[47]: 1115
Assign rand_sets[48]: 986  LLC: 2048
rand_sets[48]: 986
Assign rand_sets[49]: 258  LLC: 2048
rand_sets[49]: 258
Assign rand_sets[50]: 633  LLC: 2048
rand_sets[50]: 633
Assign rand_sets[51]: 920  LLC: 2048
rand_sets[51]: 920
Assign rand_sets[52]: 204  LLC: 2048
rand_sets[52]: 204
Assign rand_sets[53]: 227  LLC: 2048
rand_sets[53]: 227
Assign rand_sets[54]: 1818  LLC: 2048
rand_sets[54]: 1818
Assign rand_sets[55]: 886  LLC: 2048
rand_sets[55]: 886
Assign rand_sets[56]: 1422  LLC: 2048
rand_sets[56]: 1422
Assign rand_sets[57]: 607  LLC: 2048
rand_sets[57]: 607
Assign rand_sets[58]: 217  LLC: 2048
rand_sets[58]: 217
Assign rand_sets[59]: 1945  LLC: 2048
rand_sets[59]: 1945
Assign rand_sets[60]: 143  LLC: 2048
rand_sets[60]: 143
Assign rand_sets[61]: 1311  LLC: 2048
rand_sets[61]: 1311
Assign rand_sets[62]: 319  LLC: 2048
rand_sets[62]: 319
Assign rand_sets[63]: 1846  LLC: 2048
rand_sets[63]: 1846
warmup_instructions 100000000
simulation_instructions 100000000
champsim_seed 222

num_cpus 1
cpu_freq 4000
dram_io_freq 2400
page_size 4096
block_size 64
max_read_per_cycle 8
max_fill_per_cycle 1
dram_channels 1
dram_ranks 1
dram_banks 8
dram_rows 65536
dram_columns 128
dram_row_size 8
dram_size 4096
dram_pages 1048576

fetch_width 6
decode_width 6
exec_width 4
lq_width 2
sq_width 2
retire_width 4
scheduler_size 128
branch_mispredict_penalty 20
rob_size 256
lq_size 72
sq_size 56
num_instr_destinations_sparc 4
num_instr_destinations 2
num_instr_sources 4

itlb_set 16
itlb_way 8
itlb_rq_size 16
itlb_wq_size 16
itlb_pq_size 0
itlb_mshr_size 8
itlb_latency 1

dtlb_set 16
dtlb_way 4
dtlb_rq_size 16
dtlb_wq_size 16
dtlb_pq_size 0
dtlb_mshr_size 8
dtlb_latency 1

stlb_set 128
stlb_way 12
stlb_rq_size 32
stlb_wq_size 32
stlb_pq_size 0
stlb_mshr_size 16
stlb_latency 8

l1i_size 32
l1i_set 64
l1i_way 8
l1i_rq_size 64
l1i_wq_size 64
l1i_pq_size 8
l1i_mshr_size 8
l1i_latency 1

l1d_size 32
l1d_set 64
l1d_way 8
l1d_rq_size 64
l1d_wq_size 64
l1d_pq_size 8
l1d_mshr_size 16
l1d_latency 4

l2c_size 512
l2c_set 1024
l2c_way 8
l2c_rq_size 32
l2c_wq_size 32
l2c_pq_size 16
l2c_mshr_size 32
l2c_latency 10

llc_size 2048
llc_set 2048
llc_way 16
llc_rq_size 32
llc_wq_size 32
llc_pq_size 32
llc_mshr_size 64
llc_latency 20

dram_channel_width 8
dram_wq_size 64
dram_rq_size 64
tRP 15
tRCD 15
tCAS 12.5
dram_dbus_turn_around_time 30
dram_write_high_wm 56
dram_write_low_wm 48
min_dram_writes_per_switch 16
dram_mtps 2400
dram_dbus_return_time 13


Heartbeat CPU  0 instructions:    1000000 cycles:     581510 heartbeat IPC: 1.71966 cumulative IPC: 1.71966 (Simulation time: 0 hr 0 min 0 sec) 
Heartbeat CPU  0 instructions:    2000003 cycles:    1163543 heartbeat IPC: 1.71812 cumulative IPC: 1.71889 (Simulation time: 0 hr 0 min 1 sec) 
Heartbeat CPU  0 instructions:    3000002 cycles:    1745575 heartbeat IPC: 1.71812 cumulative IPC: 1.71863 (Simulation time: 0 hr 0 min 2 sec) 
Heartbeat CPU  0 instructions:    4000000 cycles:    2327604 heartbeat IPC: 1.71812 cumulative IPC: 1.71851 (Simulation time: 0 hr 0 min 3 sec) 
Heartbeat CPU  0 instructions:    5000000 cycles:    2909636 heartbeat IPC: 1.71812 cumulative IPC: 1.71843 (Simulation time: 0 hr 0 min 4 sec) 
Heartbeat CPU  0 instructions:    6000000 cycles:    3491670 heartbeat IPC: 1.71811 cumulative IPC: 1.71838 (Simulation time: 0 hr 0 min 5 sec) 
Heartbeat CPU  0 instructions:    7000000 cycles:    4073701 heartbeat IPC: 1.71812 cumulative IPC: 1.71834 (Simulation time: 0 hr 0 min 5 sec) 
Heartbeat CPU  0 instructions:    8000000 cycles:    4655734 heartbeat IPC: 1.71812 cumulative IPC: 1.71831 (Simulation time: 0 hr 0 min 6 sec) 
Heartbeat CPU  0 instructions:    9000002 cycles:    5192884 heartbeat IPC: 1.86168 cumulative IPC: 1.73314 (Simulation time: 0 hr 0 min 8 sec) 
Heartbeat CPU  0 instructions:   10000002 cycles:    5715746 heartbeat IPC: 1.91255 cumulative IPC: 1.74955 (Simulation time: 0 hr 0 min 9 sec) 
Heartbeat CPU  0 instructions:   11000001 cycles:    6238631 heartbeat IPC: 1.91246 cumulative IPC: 1.76321 (Simulation time: 0 hr 0 min 10 sec) 
Heartbeat CPU  0 instructions:   12000000 cycles:    6761493 heartbeat IPC: 1.91255 cumulative IPC: 1.77476 (Simulation time: 0 hr 0 min 12 sec) 
Heartbeat CPU  0 instructions:   13000001 cycles:    7284402 heartbeat IPC: 1.91238 cumulative IPC: 1.78464 (Simulation time: 0 hr 0 min 13 sec) 
Heartbeat CPU  0 instructions:   14000001 cycles:    7807264 heartbeat IPC: 1.91255 cumulative IPC: 1.79320 (Simulation time: 0 hr 0 min 14 sec) 
Heartbeat CPU  0 instructions:   15000000 cycles:    8330149 heartbeat IPC: 1.91246 cumulative IPC: 1.80069 (Simulation time: 0 hr 0 min 16 sec) 
Heartbeat CPU  0 instructions:   16000000 cycles:    8853011 heartbeat IPC: 1.91255 cumulative IPC: 1.80729 (Simulation time: 0 hr 0 min 17 sec) 
Heartbeat CPU  0 instructions:   17000000 cycles:    9375920 heartbeat IPC: 1.91238 cumulative IPC: 1.81316 (Simulation time: 0 hr 0 min 19 sec) 
Heartbeat CPU  0 instructions:   18000000 cycles:    9898782 heartbeat IPC: 1.91255 cumulative IPC: 1.81841 (Simulation time: 0 hr 0 min 20 sec) 
Heartbeat CPU  0 instructions:   19000003 cycles:   10421667 heartbeat IPC: 1.91247 cumulative IPC: 1.82313 (Simulation time: 0 hr 0 min 21 sec) 
Heartbeat CPU  0 instructions:   20000000 cycles:   10944529 heartbeat IPC: 1.91254 cumulative IPC: 1.82740 (Simulation time: 0 hr 0 min 23 sec) 
Heartbeat CPU  0 instructions:   21000003 cycles:   11467438 heartbeat IPC: 1.91238 cumulative IPC: 1.83127 (Simulation time: 0 hr 0 min 24 sec) 
Heartbeat CPU  0 instructions:   22000003 cycles:   11990300 heartbeat IPC: 1.91255 cumulative IPC: 1.83482 (Simulation time: 0 hr 0 min 26 sec) 
Heartbeat CPU  0 instructions:   23000000 cycles:   12504816 heartbeat IPC: 1.94357 cumulative IPC: 1.83929 (Simulation time: 0 hr 0 min 27 sec) 
Heartbeat CPU  0 instructions:   24000000 cycles:   12925097 heartbeat IPC: 2.37936 cumulative IPC: 1.85685 (Simulation time: 0 hr 0 min 28 sec) 
Heartbeat CPU  0 instructions:   25000000 cycles:   13345373 heartbeat IPC: 2.37939 cumulative IPC: 1.87331 (Simulation time: 0 hr 0 min 28 sec) 
Heartbeat CPU  0 instructions:   26000000 cycles:   13765659 heartbeat IPC: 2.37933 cumulative IPC: 1.88876 (Simulation time: 0 hr 0 min 29 sec) 
Heartbeat CPU  0 instructions:   27000000 cycles:   14185970 heartbeat IPC: 2.37919 cumulative IPC: 1.90329 (Simulation time: 0 hr 0 min 30 sec) 
Heartbeat CPU  0 instructions:   28000000 cycles:   14606278 heartbeat IPC: 2.37921 cumulative IPC: 1.91698 (Simulation time: 0 hr 0 min 31 sec) 
Heartbeat CPU  0 instructions:   29000002 cycles:   15026556 heartbeat IPC: 2.37938 cumulative IPC: 1.92992 (Simulation time: 0 hr 0 min 31 sec) 
Heartbeat CPU  0 instructions:   30000003 cycles:   15446822 heartbeat IPC: 2.37945 cumulative IPC: 1.94215 (Simulation time: 0 hr 0 min 32 sec) 
Heartbeat CPU  0 instructions:   31000001 cycles:   15867116 heartbeat IPC: 2.37928 cumulative IPC: 1.95373 (Simulation time: 0 hr 0 min 33 sec) 
Heartbeat CPU  0 instructions:   32000000 cycles:   16287435 heartbeat IPC: 2.37914 cumulative IPC: 1.96470 (Simulation time: 0 hr 0 min 34 sec) 
Heartbeat CPU  0 instructions:   33000003 cycles:   16707709 heartbeat IPC: 2.37941 cumulative IPC: 1.97514 (Simulation time: 0 hr 0 min 34 sec) 
Heartbeat CPU  0 instructions:   34000000 cycles:   17127971 heartbeat IPC: 2.37946 cumulative IPC: 1.98506 (Simulation time: 0 hr 0 min 35 sec) 
Heartbeat CPU  0 instructions:   35000002 cycles:   17548260 heartbeat IPC: 2.37932 cumulative IPC: 1.99450 (Simulation time: 0 hr 0 min 36 sec) 
Heartbeat CPU  0 instructions:   36000000 cycles:   17968573 heartbeat IPC: 2.37917 cumulative IPC: 2.00350 (Simulation time: 0 hr 0 min 37 sec) 
Heartbeat CPU  0 instructions:   37000000 cycles:   18388889 heartbeat IPC: 2.37916 cumulative IPC: 2.01208 (Simulation time: 0 hr 0 min 37 sec) 
Heartbeat CPU  0 instructions:   38000002 cycles:   18809158 heartbeat IPC: 2.37943 cumulative IPC: 2.02029 (Simulation time: 0 hr 0 min 38 sec) 
Heartbeat CPU  0 instructions:   39000000 cycles:   19229441 heartbeat IPC: 2.37934 cumulative IPC: 2.02814 (Simulation time: 0 hr 0 min 39 sec) 
Heartbeat CPU  0 instructions:   40000000 cycles:   19649735 heartbeat IPC: 2.37929 cumulative IPC: 2.03565 (Simulation time: 0 hr 0 min 40 sec) 
Heartbeat CPU  0 instructions:   41000002 cycles:   20070071 heartbeat IPC: 2.37905 cumulative IPC: 2.04284 (Simulation time: 0 hr 0 min 40 sec) 
Heartbeat CPU  0 instructions:   42000003 cycles:   20490341 heartbeat IPC: 2.37943 cumulative IPC: 2.04975 (Simulation time: 0 hr 0 min 41 sec) 
Heartbeat CPU  0 instructions:   43000001 cycles:   20910611 heartbeat IPC: 2.37942 cumulative IPC: 2.05637 (Simulation time: 0 hr 0 min 42 sec) 
Heartbeat CPU  0 instructions:   44000000 cycles:   21330881 heartbeat IPC: 2.37942 cumulative IPC: 2.06274 (Simulation time: 0 hr 0 min 43 sec) 
Heartbeat CPU  0 instructions:   45000001 cycles:   21751184 heartbeat IPC: 2.37924 cumulative IPC: 2.06885 (Simulation time: 0 hr 0 min 43 sec) 
Heartbeat CPU  0 instructions:   46000001 cycles:   22171491 heartbeat IPC: 2.37921 cumulative IPC: 2.07474 (Simulation time: 0 hr 0 min 44 sec) 
Heartbeat CPU  0 instructions:   47000000 cycles:   22750998 heartbeat IPC: 1.72560 cumulative IPC: 2.06584 (Simulation time: 0 hr 0 min 45 sec) 
Heartbeat CPU  0 instructions:   48000000 cycles:   23333737 heartbeat IPC: 1.71603 cumulative IPC: 2.05711 (Simulation time: 0 hr 0 min 46 sec) 
Heartbeat CPU  0 instructions:   49000000 cycles:   23916481 heartbeat IPC: 1.71602 cumulative IPC: 2.04880 (Simulation time: 0 hr 0 min 47 sec) 
Heartbeat CPU  0 instructions:   50000002 cycles:   24499223 heartbeat IPC: 1.71603 cumulative IPC: 2.04088 (Simulation time: 0 hr 0 min 47 sec) 
Heartbeat CPU  0 instructions:   51000002 cycles:   25081964 heartbeat IPC: 1.71603 cumulative IPC: 2.03333 (Simulation time: 0 hr 0 min 48 sec) 
Heartbeat CPU  0 instructions:   52000000 cycles:   25664703 heartbeat IPC: 1.71603 cumulative IPC: 2.02613 (Simulation time: 0 hr 0 min 49 sec) 
Heartbeat CPU  0 instructions:   53000000 cycles:   26247444 heartbeat IPC: 1.71603 cumulative IPC: 2.01924 (Simulation time: 0 hr 0 min 50 sec) 
Heartbeat CPU  0 instructions:   54000003 cycles:   26830187 heartbeat IPC: 1.71603 cumulative IPC: 2.01266 (Simulation time: 0 hr 0 min 51 sec) 
Heartbeat CPU  0 instructions:   55000002 cycles:   27412929 heartbeat IPC: 1.71602 cumulative IPC: 2.00635 (Simulation time: 0 hr 0 min 51 sec) 
Heartbeat CPU  0 instructions:   56000000 cycles:   27995668 heartbeat IPC: 1.71603 cumulative IPC: 2.00031 (Simulation time: 0 hr 0 min 52 sec) 
Heartbeat CPU  0 instructions:   57000000 cycles:   28578410 heartbeat IPC: 1.71603 cumulative IPC: 1.99451 (Simulation time: 0 hr 0 min 53 sec) 
Heartbeat CPU  0 instructions:   58000000 cycles:   29161154 heartbeat IPC: 1.71602 cumulative IPC: 1.98895 (Simulation time: 0 hr 0 min 54 sec) 
Heartbeat CPU  0 instructions:   59000000 cycles:   29743895 heartbeat IPC: 1.71603 cumulative IPC: 1.98360 (Simulation time: 0 hr 0 min 55 sec) 
Heartbeat CPU  0 instructions:   60000000 cycles:   30326638 heartbeat IPC: 1.71602 cumulative IPC: 1.97846 (Simulation time: 0 hr 0 min 56 sec) 
Heartbeat CPU  0 instructions:   61000002 cycles:   30909378 heartbeat IPC: 1.71603 cumulative IPC: 1.97351 (Simulation time: 0 hr 0 min 56 sec) 
Heartbeat CPU  0 instructions:   62000002 cycles:   31492119 heartbeat IPC: 1.71603 cumulative IPC: 1.96875 (Simulation time: 0 hr 0 min 57 sec) 
Heartbeat CPU  0 instructions:   63000001 cycles:   32074861 heartbeat IPC: 1.71602 cumulative IPC: 1.96416 (Simulation time: 0 hr 0 min 58 sec) 
Heartbeat CPU  0 instructions:   64000000 cycles:   32657600 heartbeat IPC: 1.71603 cumulative IPC: 1.95973 (Simulation time: 0 hr 0 min 59 sec) 
Heartbeat CPU  0 instructions:   65000003 cycles:   33240343 heartbeat IPC: 1.71603 cumulative IPC: 1.95546 (Simulation time: 0 hr 1 min 0 sec) 
Heartbeat CPU  0 instructions:   66000002 cycles:   33823085 heartbeat IPC: 1.71602 cumulative IPC: 1.95133 (Simulation time: 0 hr 1 min 1 sec) 
Heartbeat CPU  0 instructions:   67000001 cycles:   34405824 heartbeat IPC: 1.71603 cumulative IPC: 1.94734 (Simulation time: 0 hr 1 min 1 sec) 
Heartbeat CPU  0 instructions:   68000000 cycles:   34988567 heartbeat IPC: 1.71602 cumulative IPC: 1.94349 (Simulation time: 0 hr 1 min 2 sec) 
Heartbeat CPU  0 instructions:   69000000 cycles:   35571312 heartbeat IPC: 1.71602 cumulative IPC: 1.93977 (Simulation time: 0 hr 1 min 3 sec) 
Heartbeat CPU  0 instructions:   70000000 cycles:   36097434 heartbeat IPC: 1.90070 cumulative IPC: 1.93920 (Simulation time: 0 hr 1 min 4 sec) 
Heartbeat CPU  0 instructions:   71000003 cycles:   36618084 heartbeat IPC: 1.92068 cumulative IPC: 1.93893 (Simulation time: 0 hr 1 min 6 sec) 
Heartbeat CPU  0 instructions:   72000000 cycles:   37138714 heartbeat IPC: 1.92074 cumulative IPC: 1.93868 (Simulation time: 0 hr 1 min 7 sec) 
Heartbeat CPU  0 instructions:   73000002 cycles:   37659391 heartbeat IPC: 1.92058 cumulative IPC: 1.93843 (Simulation time: 0 hr 1 min 9 sec) 
Heartbeat CPU  0 instructions:   74000002 cycles:   38180021 heartbeat IPC: 1.92075 cumulative IPC: 1.93819 (Simulation time: 0 hr 1 min 10 sec) 
Heartbeat CPU  0 instructions:   75000001 cycles:   38700675 heartbeat IPC: 1.92066 cumulative IPC: 1.93795 (Simulation time: 0 hr 1 min 11 sec) 
Heartbeat CPU  0 instructions:   76000000 cycles:   39221305 heartbeat IPC: 1.92075 cumulative IPC: 1.93772 (Simulation time: 0 hr 1 min 13 sec) 
Heartbeat CPU  0 instructions:   77000001 cycles:   39741982 heartbeat IPC: 1.92058 cumulative IPC: 1.93750 (Simulation time: 0 hr 1 min 14 sec) 
Heartbeat CPU  0 instructions:   78000001 cycles:   40262612 heartbeat IPC: 1.92075 cumulative IPC: 1.93728 (Simulation time: 0 hr 1 min 15 sec) 
Heartbeat CPU  0 instructions:   79000000 cycles:   40783266 heartbeat IPC: 1.92066 cumulative IPC: 1.93707 (Simulation time: 0 hr 1 min 17 sec) 
Heartbeat CPU  0 instructions:   80000000 cycles:   41303896 heartbeat IPC: 1.92075 cumulative IPC: 1.93686 (Simulation time: 0 hr 1 min 18 sec) 
Heartbeat CPU  0 instructions:   81000000 cycles:   41824573 heartbeat IPC: 1.92058 cumulative IPC: 1.93666 (Simulation time: 0 hr 1 min 20 sec) 
Heartbeat CPU  0 instructions:   82000000 cycles:   42345203 heartbeat IPC: 1.92075 cumulative IPC: 1.93646 (Simulation time: 0 hr 1 min 21 sec) 
Heartbeat CPU  0 instructions:   83000003 cycles:   42865855 heartbeat IPC: 1.92067 cumulative IPC: 1.93627 (Simulation time: 0 hr 1 min 23 sec) 
Heartbeat CPU  0 instructions:   84000000 cycles:   43363101 heartbeat IPC: 2.01107 cumulative IPC: 1.93713 (Simulation time: 0 hr 1 min 24 sec) 
Heartbeat CPU  0 instructions:   85000000 cycles:   43783384 heartbeat IPC: 2.37935 cumulative IPC: 1.94138 (Simulation time: 0 hr 1 min 25 sec) 
Heartbeat CPU  0 instructions:   86000001 cycles:   44203671 heartbeat IPC: 2.37933 cumulative IPC: 1.94554 (Simulation time: 0 hr 1 min 25 sec) 
Heartbeat CPU  0 instructions:   87000003 cycles:   44623972 heartbeat IPC: 2.37925 cumulative IPC: 1.94962 (Simulation time: 0 hr 1 min 26 sec) 
Heartbeat CPU  0 instructions:   88000000 cycles:   45044332 heartbeat IPC: 2.37891 cumulative IPC: 1.95363 (Simulation time: 0 hr 1 min 27 sec) 
Heartbeat CPU  0 instructions:   89000001 cycles:   45464612 heartbeat IPC: 2.37937 cumulative IPC: 1.95757 (Simulation time: 0 hr 1 min 28 sec) 
Heartbeat CPU  0 instructions:   90000001 cycles:   45884891 heartbeat IPC: 2.37937 cumulative IPC: 1.96143 (Simulation time: 0 hr 1 min 28 sec) 
Heartbeat CPU  0 instructions:   91000000 cycles:   46305171 heartbeat IPC: 2.37936 cumulative IPC: 1.96522 (Simulation time: 0 hr 1 min 29 sec) 
Heartbeat CPU  0 instructions:   92000000 cycles:   46725478 heartbeat IPC: 2.37921 cumulative IPC: 1.96895 (Simulation time: 0 hr 1 min 30 sec) 
Heartbeat CPU  0 instructions:   93000003 cycles:   47145811 heartbeat IPC: 2.37907 cumulative IPC: 1.97260 (Simulation time: 0 hr 1 min 31 sec) 
Heartbeat CPU  0 instructions:   94000000 cycles:   47566093 heartbeat IPC: 2.37935 cumulative IPC: 1.97620 (Simulation time: 0 hr 1 min 31 sec) 
Heartbeat CPU  0 instructions:   95000002 cycles:   47986376 heartbeat IPC: 2.37935 cumulative IPC: 1.97973 (Simulation time: 0 hr 1 min 32 sec) 
Heartbeat CPU  0 instructions:   96000000 cycles:   48406671 heartbeat IPC: 2.37928 cumulative IPC: 1.98320 (Simulation time: 0 hr 1 min 33 sec) 
Heartbeat CPU  0 instructions:   97000000 cycles:   48827027 heartbeat IPC: 2.37894 cumulative IPC: 1.98660 (Simulation time: 0 hr 1 min 34 sec) 
Heartbeat CPU  0 instructions:   98000000 cycles:   49247317 heartbeat IPC: 2.37931 cumulative IPC: 1.98996 (Simulation time: 0 hr 1 min 34 sec) 
Heartbeat CPU  0 instructions:   99000003 cycles:   49667612 heartbeat IPC: 2.37929 cumulative IPC: 1.99325 (Simulation time: 0 hr 1 min 35 sec) 
Heartbeat CPU  0 instructions:  100000000 cycles:   50087897 heartbeat IPC: 2.37933 cumulative IPC: 1.99649 (Simulation time: 0 hr 1 min 36 sec) 

Warmup complete CPU  0 instructions:  100000001 cycles:   50087899 (Simulation time: 0 hr 1 min 36 sec) 

Heartbeat CPU  0 instructions:  101000003 cycles:   51484499 heartbeat IPC: 0.71603 cumulative IPC: 0.71603 (Simulation time: 0 hr 1 min 37 sec) 
Heartbeat CPU  0 instructions:  102000003 cycles:   53077318 heartbeat IPC: 0.62782 cumulative IPC: 0.66903 (Simulation time: 0 hr 1 min 39 sec) 
Heartbeat CPU  0 instructions:  103000001 cycles:   54537015 heartbeat IPC: 0.68507 cumulative IPC: 0.67429 (Simulation time: 0 hr 1 min 40 sec) 
Heartbeat CPU  0 instructions:  104000000 cycles:   55877391 heartbeat IPC: 0.74606 cumulative IPC: 0.69091 (Simulation time: 0 hr 1 min 42 sec) 
Heartbeat CPU  0 instructions:  105000000 cycles:   57211190 heartbeat IPC: 0.74974 cumulative IPC: 0.70192 (Simulation time: 0 hr 1 min 43 sec) 
Heartbeat CPU  0 instructions:  106000002 cycles:   58562278 heartbeat IPC: 0.74015 cumulative IPC: 0.70802 (Simulation time: 0 hr 1 min 45 sec) 
Heartbeat CPU  0 instructions:  107000001 cycles:   59643660 heartbeat IPC: 0.92474 cumulative IPC: 0.73254 (Simulation time: 0 hr 1 min 46 sec) 
Heartbeat CPU  0 instructions:  108000000 cycles:   61021192 heartbeat IPC: 0.72594 cumulative IPC: 0.73171 (Simulation time: 0 hr 1 min 48 sec) 
Heartbeat CPU  0 instructions:  109000000 cycles:   62471203 heartbeat IPC: 0.68965 cumulative IPC: 0.72678 (Simulation time: 0 hr 1 min 49 sec) 
Heartbeat CPU  0 instructions:  110000001 cycles:   63901628 heartbeat IPC: 0.69909 cumulative IPC: 0.72392 (Simulation time: 0 hr 1 min 51 sec) 
Heartbeat CPU  0 instructions:  111000001 cycles:   65327530 heartbeat IPC: 0.70131 cumulative IPC: 0.72180 (Simulation time: 0 hr 1 min 52 sec) 
Heartbeat CPU  0 instructions:  112000000 cycles:   66761478 heartbeat IPC: 0.69737 cumulative IPC: 0.71970 (Simulation time: 0 hr 1 min 54 sec) 
Heartbeat CPU  0 instructions:  113000002 cycles:   68195535 heartbeat IPC: 0.69732 cumulative IPC: 0.71793 (Simulation time: 0 hr 1 min 55 sec) 
Heartbeat CPU  0 instructions:  114000002 cycles:   69632198 heartbeat IPC: 0.69606 cumulative IPC: 0.71632 (Simulation time: 0 hr 1 min 57 sec) 
Heartbeat CPU  0 instructions:  115000003 cycles:   71074409 heartbeat IPC: 0.69338 cumulative IPC: 0.71474 (Simulation time: 0 hr 1 min 58 sec) 
Heartbeat CPU  0 instructions:  116000000 cycles:   72514291 heartbeat IPC: 0.69450 cumulative IPC: 0.71345 (Simulation time: 0 hr 2 min 0 sec) 
Heartbeat CPU  0 instructions:  117000000 cycles:   73980929 heartbeat IPC: 0.68183 cumulative IPC: 0.71150 (Simulation time: 0 hr 2 min 2 sec) 
Heartbeat CPU  0 instructions:  118000000 cycles:   75435292 heartbeat IPC: 0.68759 cumulative IPC: 0.71013 (Simulation time: 0 hr 2 min 3 sec) 
Heartbeat CPU  0 instructions:  119000001 cycles:   76882092 heartbeat IPC: 0.69118 cumulative IPC: 0.70911 (Simulation time: 0 hr 2 min 5 sec) 
Heartbeat CPU  0 instructions:  120000000 cycles:   78340919 heartbeat IPC: 0.68548 cumulative IPC: 0.70789 (Simulation time: 0 hr 2 min 6 sec) 
Heartbeat CPU  0 instructions:  121000000 cycles:   79792425 heartbeat IPC: 0.68894 cumulative IPC: 0.70696 (Simulation time: 0 hr 2 min 8 sec) 
Heartbeat CPU  0 instructions:  122000002 cycles:   81266358 heartbeat IPC: 0.67846 cumulative IPC: 0.70562 (Simulation time: 0 hr 2 min 9 sec) 
Heartbeat CPU  0 instructions:  123000002 cycles:   82718654 heartbeat IPC: 0.68856 cumulative IPC: 0.70486 (Simulation time: 0 hr 2 min 11 sec) 
Heartbeat CPU  0 instructions:  124000000 cycles:   84190718 heartbeat IPC: 0.67932 cumulative IPC: 0.70375 (Simulation time: 0 hr 2 min 12 sec) 
Heartbeat CPU  0 instructions:  125000003 cycles:   85665060 heartbeat IPC: 0.67827 cumulative IPC: 0.70270 (Simulation time: 0 hr 2 min 14 sec) 
Heartbeat CPU  0 instructions:  126000000 cycles:   87135701 heartbeat IPC: 0.67997 cumulative IPC: 0.70180 (Simulation time: 0 hr 2 min 15 sec) 
Heartbeat CPU  0 instructions:  127000000 cycles:   88604239 heartbeat IPC: 0.68095 cumulative IPC: 0.70100 (Simulation time: 0 hr 2 min 17 sec) 
Heartbeat CPU  0 instructions:  128000000 cycles:   90076251 heartbeat IPC: 0.67934 cumulative IPC: 0.70020 (Simulation time: 0 hr 2 min 18 sec) 
Heartbeat CPU  0 instructions:  129000001 cycles:   91507895 heartbeat IPC: 0.69850 cumulative IPC: 0.70014 (Simulation time: 0 hr 2 min 20 sec) 
Heartbeat CPU  0 instructions:  130000001 cycles:   92700941 heartbeat IPC: 0.83819 cumulative IPC: 0.70401 (Simulation time: 0 hr 2 min 21 sec) 
Heartbeat CPU  0 instructions:  131000000 cycles:   95094168 heartbeat IPC: 0.41785 cumulative IPC: 0.68879 (Simulation time: 0 hr 2 min 23 sec) 
Heartbeat CPU  0 instructions:  132000000 cycles:   98098730 heartbeat IPC: 0.33283 cumulative IPC: 0.66652 (Simulation time: 0 hr 2 min 26 sec) 
Heartbeat CPU  0 instructions:  133000000 cycles:  101076477 heartbeat IPC: 0.33582 cumulative IPC: 0.64720 (Simulation time: 0 hr 2 min 28 sec) 
Heartbeat CPU  0 instructions:  134000000 cycles:  104064173 heartbeat IPC: 0.33471 cumulative IPC: 0.62991 (Simulation time: 0 hr 2 min 30 sec) 
Heartbeat CPU  0 instructions:  135000000 cycles:  107038314 heartbeat IPC: 0.33623 cumulative IPC: 0.61457 (Simulation time: 0 hr 2 min 33 sec) 
Heartbeat CPU  0 instructions:  136000000 cycles:  110031275 heartbeat IPC: 0.33412 cumulative IPC: 0.60057 (Simulation time: 0 hr 2 min 35 sec) 
Heartbeat CPU  0 instructions:  137000000 cycles:  112988932 heartbeat IPC: 0.33811 cumulative IPC: 0.58823 (Simulation time: 0 hr 2 min 37 sec) 
Heartbeat CPU  0 instructions:  138000000 cycles:  115968610 heartbeat IPC: 0.33561 cumulative IPC: 0.57680 (Simulation time: 0 hr 2 min 39 sec) 
Heartbeat CPU  0 instructions:  139000000 cycles:  118952236 heartbeat IPC: 0.33516 cumulative IPC: 0.56633 (Simulation time: 0 hr 2 min 41 sec) 
Heartbeat CPU  0 instructions:  140000000 cycles:  121944163 heartbeat IPC: 0.33423 cumulative IPC: 0.55667 (Simulation time: 0 hr 2 min 44 sec) 
Heartbeat CPU  0 instructions:  141000000 cycles:  124926560 heartbeat IPC: 0.33530 cumulative IPC: 0.54785 (Simulation time: 0 hr 2 min 46 sec) 
Heartbeat CPU  0 instructions:  142000000 cycles:  127922394 heartbeat IPC: 0.33380 cumulative IPC: 0.53961 (Simulation time: 0 hr 2 min 48 sec) 
Heartbeat CPU  0 instructions:  143000000 cycles:  130903484 heartbeat IPC: 0.33545 cumulative IPC: 0.53208 (Simulation time: 0 hr 2 min 50 sec) 
Heartbeat CPU  0 instructions:  144000000 cycles:  133892753 heartbeat IPC: 0.33453 cumulative IPC: 0.52503 (Simulation time: 0 hr 2 min 52 sec) 
Heartbeat CPU  0 instructions:  145000002 cycles:  136621182 heartbeat IPC: 0.36651 cumulative IPC: 0.52003 (Simulation time: 0 hr 2 min 54 sec) 
Heartbeat CPU  0 instructions:  146000000 cycles:  138377759 heartbeat IPC: 0.56929 cumulative IPC: 0.52101 (Simulation time: 0 hr 2 min 56 sec) 
Heartbeat CPU  0 instructions:  147000000 cycles:  140002311 heartbeat IPC: 0.61555 cumulative IPC: 0.52272 (Simulation time: 0 hr 2 min 58 sec) 
Heartbeat CPU  0 instructions:  148000000 cycles:  141567377 heartbeat IPC: 0.63895 cumulative IPC: 0.52471 (Simulation time: 0 hr 2 min 59 sec) 
Heartbeat CPU  0 instructions:  149000000 cycles:  143152734 heartbeat IPC: 0.63077 cumulative IPC: 0.52651 (Simulation time: 0 hr 3 min 1 sec) 
Heartbeat CPU  0 instructions:  150000000 cycles:  144647866 heartbeat IPC: 0.66884 cumulative IPC: 0.52876 (Simulation time: 0 hr 3 min 2 sec) 
Heartbeat CPU  0 instructions:  151000001 cycles:  146063849 heartbeat IPC: 0.70622 cumulative IPC: 0.53138 (Simulation time: 0 hr 3 min 4 sec) 
Heartbeat CPU  0 instructions:  152000000 cycles:  147613416 heartbeat IPC: 0.64534 cumulative IPC: 0.53319 (Simulation time: 0 hr 3 min 5 sec) 
Heartbeat CPU  0 instructions:  153000001 cycles:  149195839 heartbeat IPC: 0.63194 cumulative IPC: 0.53477 (Simulation time: 0 hr 3 min 7 sec) 
Heartbeat CPU  0 instructions:  154000003 cycles:  150789538 heartbeat IPC: 0.62747 cumulative IPC: 0.53624 (Simulation time: 0 hr 3 min 8 sec) 
Heartbeat CPU  0 instructions:  155000001 cycles:  152326485 heartbeat IPC: 0.65064 cumulative IPC: 0.53796 (Simulation time: 0 hr 3 min 10 sec) 
Heartbeat CPU  0 instructions:  156000000 cycles:  153866907 heartbeat IPC: 0.64917 cumulative IPC: 0.53961 (Simulation time: 0 hr 3 min 12 sec) 
Heartbeat CPU  0 instructions:  157000002 cycles:  155448559 heartbeat IPC: 0.63225 cumulative IPC: 0.54100 (Simulation time: 0 hr 3 min 13 sec) 
Heartbeat CPU  0 instructions:  158000000 cycles:  156999963 heartbeat IPC: 0.64458 cumulative IPC: 0.54250 (Simulation time: 0 hr 3 min 15 sec) 
Heartbeat CPU  0 instructions:  159000002 cycles:  158533974 heartbeat IPC: 0.65189 cumulative IPC: 0.54405 (Simulation time: 0 hr 3 min 16 sec) 
Heartbeat CPU  0 instructions:  160000000 cycles:  160062601 heartbeat IPC: 0.65418 cumulative IPC: 0.54558 (Simulation time: 0 hr 3 min 18 sec) 
Heartbeat CPU  0 instructions:  161000000 cycles:  161589550 heartbeat IPC: 0.65490 cumulative IPC: 0.54708 (Simulation time: 0 hr 3 min 19 sec) 
Heartbeat CPU  0 instructions:  162000002 cycles:  163066606 heartbeat IPC: 0.67702 cumulative IPC: 0.54878 (Simulation time: 0 hr 3 min 21 sec) 
Heartbeat CPU  0 instructions:  163000000 cycles:  164512996 heartbeat IPC: 0.69138 cumulative IPC: 0.55058 (Simulation time: 0 hr 3 min 22 sec) 
Heartbeat CPU  0 instructions:  164000000 cycles:  166024080 heartbeat IPC: 0.66178 cumulative IPC: 0.55203 (Simulation time: 0 hr 3 min 24 sec) 
Heartbeat CPU  0 instructions:  165000001 cycles:  167499228 heartbeat IPC: 0.67790 cumulative IPC: 0.55361 (Simulation time: 0 hr 3 min 25 sec) 
Heartbeat CPU  0 instructions:  166000003 cycles:  168936772 heartbeat IPC: 0.69563 cumulative IPC: 0.55533 (Simulation time: 0 hr 3 min 27 sec) 
Heartbeat CPU  0 instructions:  167000001 cycles:  170282233 heartbeat IPC: 0.74324 cumulative IPC: 0.55743 (Simulation time: 0 hr 3 min 28 sec) 
Heartbeat CPU  0 instructions:  168000000 cycles:  171385898 heartbeat IPC: 0.90607 cumulative IPC: 0.56060 (Simulation time: 0 hr 3 min 30 sec) 
Heartbeat CPU  0 instructions:  169000000 cycles:  172766196 heartbeat IPC: 0.72448 cumulative IPC: 0.56245 (Simulation time: 0 hr 3 min 31 sec) 
Heartbeat CPU  0 instructions:  170000003 cycles:  174269272 heartbeat IPC: 0.66530 cumulative IPC: 0.56369 (Simulation time: 0 hr 3 min 33 sec) 
Heartbeat CPU  0 instructions:  171000001 cycles:  175787297 heartbeat IPC: 0.65875 cumulative IPC: 0.56484 (Simulation time: 0 hr 3 min 34 sec) 
Heartbeat CPU  0 instructions:  172000000 cycles:  177289064 heartbeat IPC: 0.66588 cumulative IPC: 0.56603 (Simulation time: 0 hr 3 min 36 sec) 
Heartbeat CPU  0 instructions:  173000001 cycles:  178790936 heartbeat IPC: 0.66584 cumulative IPC: 0.56720 (Simulation time: 0 hr 3 min 38 sec) 
Heartbeat CPU  0 instructions:  174000000 cycles:  180304843 heartbeat IPC: 0.66054 cumulative IPC: 0.56828 (Simulation time: 0 hr 3 min 39 sec) 
Heartbeat CPU  0 instructions:  175000002 cycles:  181807842 heartbeat IPC: 0.66534 cumulative IPC: 0.56939 (Simulation time: 0 hr 3 min 41 sec) 
Heartbeat CPU  0 instructions:  176000000 cycles:  183306492 heartbeat IPC: 0.66727 cumulative IPC: 0.57049 (Simulation time: 0 hr 3 min 42 sec) 
Heartbeat CPU  0 instructions:  177000002 cycles:  184820735 heartbeat IPC: 0.66040 cumulative IPC: 0.57150 (Simulation time: 0 hr 3 min 44 sec) 
Heartbeat CPU  0 instructions:  178000000 cycles:  186328691 heartbeat IPC: 0.66315 cumulative IPC: 0.57252 (Simulation time: 0 hr 3 min 46 sec) 
Heartbeat CPU  0 instructions:  179000003 cycles:  187849143 heartbeat IPC: 0.65770 cumulative IPC: 0.57346 (Simulation time: 0 hr 3 min 47 sec) 
Heartbeat CPU  0 instructions:  180000000 cycles:  189365422 heartbeat IPC: 0.65951 cumulative IPC: 0.57439 (Simulation time: 0 hr 3 min 49 sec) 
Heartbeat CPU  0 instructions:  181000000 cycles:  190897663 heartbeat IPC: 0.65264 cumulative IPC: 0.57524 (Simulation time: 0 hr 3 min 50 sec) 
Heartbeat CPU  0 instructions:  182000001 cycles:  192428822 heartbeat IPC: 0.65310 cumulative IPC: 0.57608 (Simulation time: 0 hr 3 min 52 sec) 
Heartbeat CPU  0 instructions:  183000000 cycles:  193950077 heartbeat IPC: 0.65735 cumulative IPC: 0.57694 (Simulation time: 0 hr 3 min 54 sec) 
Heartbeat CPU  0 instructions:  184000000 cycles:  195480515 heartbeat IPC: 0.65341 cumulative IPC: 0.57775 (Simulation time: 0 hr 3 min 55 sec) 
Heartbeat CPU  0 instructions:  185000001 cycles:  197014101 heartbeat IPC: 0.65207 cumulative IPC: 0.57852 (Simulation time: 0 hr 3 min 57 sec) 
Heartbeat CPU  0 instructions:  186000002 cycles:  198551056 heartbeat IPC: 0.65064 cumulative IPC: 0.57927 (Simulation time: 0 hr 3 min 59 sec) 
Heartbeat CPU  0 instructions:  187000000 cycles:  200092974 heartbeat IPC: 0.64854 cumulative IPC: 0.57998 (Simulation time: 0 hr 4 min 0 sec) 
Heartbeat CPU  0 instructions:  188000000 cycles:  201630228 heartbeat IPC: 0.65051 cumulative IPC: 0.58070 (Simulation time: 0 hr 4 min 2 sec) 
Heartbeat CPU  0 instructions:  189000001 cycles:  203160289 heartbeat IPC: 0.65357 cumulative IPC: 0.58142 (Simulation time: 0 hr 4 min 3 sec) 
Heartbeat CPU  0 instructions:  190000000 cycles:  204647308 heartbeat IPC: 0.67249 cumulative IPC: 0.58230 (Simulation time: 0 hr 4 min 5 sec) 
Heartbeat CPU  0 instructions:  191000000 cycles:  205871690 heartbeat IPC: 0.81674 cumulative IPC: 0.58414 (Simulation time: 0 hr 4 min 6 sec) 
Heartbeat CPU  0 instructions:  192000000 cycles:  208284946 heartbeat IPC: 0.41438 cumulative IPC: 0.58155 (Simulation time: 0 hr 4 min 8 sec) 
Heartbeat CPU  0 instructions:  193000000 cycles:  211289670 heartbeat IPC: 0.33281 cumulative IPC: 0.57692 (Simulation time: 0 hr 4 min 11 sec) 
Heartbeat CPU  0 instructions:  194000000 cycles:  214237690 heartbeat IPC: 0.33921 cumulative IPC: 0.57265 (Simulation time: 0 hr 4 min 13 sec) 
Heartbeat CPU  0 instructions:  195000000 cycles:  217201210 heartbeat IPC: 0.33744 cumulative IPC: 0.56848 (Simulation time: 0 hr 4 min 15 sec) 
Heartbeat CPU  0 instructions:  196000000 cycles:  220150430 heartbeat IPC: 0.33907 cumulative IPC: 0.56450 (Simulation time: 0 hr 4 min 17 sec) 
Heartbeat CPU  0 instructions:  197000000 cycles:  223107047 heartbeat IPC: 0.33822 cumulative IPC: 0.56063 (Simulation time: 0 hr 4 min 19 sec) 
Heartbeat CPU  0 instructions:  198000000 cycles:  226044520 heartbeat IPC: 0.34043 cumulative IPC: 0.55696 (Simulation time: 0 hr 4 min 21 sec) 
Heartbeat CPU  0 instructions:  199000000 cycles:  228995593 heartbeat IPC: 0.33886 cumulative IPC: 0.55336 (Simulation time: 0 hr 4 min 24 sec) 
Heartbeat CPU  0 instructions:  200000000 cycles:  231950604 heartbeat IPC: 0.33841 cumulative IPC: 0.54987 (Simulation time: 0 hr 4 min 26 sec) 
Finished CPU 0 instructions: 100000000 cycles: 181862718 cumulative IPC: 0.54987 (Simulation time: 0 hr 4 min 26 sec) 

ChampSim completed all CPUs

[ROI Statistics]
Core_0_instructions 100000000
Core_0_cycles 181862718
Core_0_IPC 0.54987

Core_0_branch_prediction_accuracy 99.58952
Core_0_branch_MPKI 0.70683
Core_0_average_ROB_occupancy_at_mispredict 218.77410

Core_0_L1D_total_access 21113738
Core_0_L1D_total_hit 18537500
Core_0_L1D_total_miss 2576238
Core_0_L1D_loads 10329670
Core_0_L1D_load_hit 8289171
Core_0_L1D_load_miss 2040499
Core_0_L1D_RFOs 3492977
Core_0_L1D_RFO_hit 3492957
Core_0_L1D_RFO_miss 20
Core_0_L1D_prefetches 7291091
Core_0_L1D_prefetch_hit 6755372
Core_0_L1D_prefetch_miss 535719
Core_0_L1D_writebacks 0
Core_0_L1D_writeback_hit 0
Core_0_L1D_writeback_miss 0
Core_0_L1D_prefetch_requested 41942896
Core_0_L1D_prefetch_issued 41678536
Core_0_L1D_prefetch_useful 2983161
Core_0_L1D_prefetch_useless 30
Core_0_L1D_prefetch_late 1862583
Core_0_L1D_average_miss_latency 101308924.82090

Core_0_L1I_total_access 32409180
Core_0_L1I_total_hit 32409179
Core_0_L1I_total_miss 1
Core_0_L1I_loads 32409180
Core_0_L1I_load_hit 32409179
Core_0_L1I_load_miss 1
Core_0_L1I_RFOs 0
Core_0_L1I_RFO_hit 0
Core_0_L1I_RFO_miss 0
Core_0_L1I_prefetches 0
Core_0_L1I_prefetch_hit 0
Core_0_L1I_prefetch_miss 0
Core_0_L1I_writebacks 0
Core_0_L1I_writeback_hit 0
Core_0_L1I_writeback_miss 0
Core_0_L1I_prefetch_requested 0
Core_0_L1I_prefetch_issued 0
Core_0_L1I_prefetch_useful 0
Core_0_L1I_prefetch_useless 0
Core_0_L1I_prefetch_late 0
Core_0_L1I_average_miss_latency 231.00000

Core_0_L2C_total_access 3656069
Core_0_L2C_total_hit 1079820
Core_0_L2C_total_miss 2576249
Core_0_L2C_loads 177922
Core_0_L2C_load_hit 0
Core_0_L2C_load_miss 177922
Core_0_L2C_RFOs 20
Core_0_L2C_RFO_hit 0
Core_0_L2C_RFO_miss 20
Core_0_L2C_prefetches 2527981
Core_0_L2C_prefetch_hit 129674
Core_0_L2C_prefetch_miss 2398307
Core_0_L2C_writebacks 950146
Core_0_L2C_writeback_hit 950146
Core_0_L2C_writeback_miss 0
Core_0_L2C_prefetch_requested 4334679
Core_0_L2C_prefetch_issued 4268032
Core_0_L2C_prefetch_useful 147461
Core_0_L2C_prefetch_useless 4838774
Core_0_L2C_prefetch_late 42190
Core_0_L2C_average_miss_latency 176.94914

Core_0_LLC_total_access 3518953
Core_0_LLC_total_hit 117530
Core_0_LLC_total_miss 3401423
Core_0_LLC_loads 152121
Core_0_LLC_load_hit 1835
Core_0_LLC_load_miss 150286
Core_0_LLC_RFOs 20
Core_0_LLC_RFO_hit 8
Core_0_LLC_RFO_miss 12
Core_0_LLC_prefetches 2424109
Core_0_LLC_prefetch_hit 72134
Core_0_LLC_prefetch_miss 2351975
Core_0_LLC_writebacks 942703
Core_0_LLC_writeback_hit 43553
Core_0_LLC_writeback_miss 899150
Core_0_LLC_prefetch_requested 0
Core_0_LLC_prefetch_issued 0
Core_0_LLC_prefetch_useful 49
Core_0_LLC_prefetch_useless 4961096
Core_0_LLC_prefetch_late 0
Core_0_LLC_average_miss_latency 110.82021

Core_0_major_page_fault 0
Core_0_minor_page_fault 8199

CPU 0 L1D next line prefetcher final stats
CPU 0 L2C next line prefetcher final stats
Channel_0_RQ_row_buffer_hit 1225707
Channel_0_RQ_row_buffer_miss 1276566
Channel_0_WQ_row_buffer_hit 461142
Channel_0_WQ_row_buffer_miss 470807
Channel_0_WQ_full 0
Channel_0_dbus_congested 2036487

avg_congested_cycle 9
