*************************************************
   ChampSim Multicore Out-of-Order Simulator
   Last compiled: Dec 21 2023 17:39:38
*************************************************

trace_0 ./test_trace/462.libquantum-714B.champsimtrace.xz
CPU 0 L1D next line prefetcher
CPU 0 L2C IP-based stride prefetcher
Initialize DRRIP state
Assign rand_sets[0]: 454  LLC: 2048
rand_sets[0]: 454
Assign rand_sets[1]: 1662  LLC: 2048
rand_sets[1]: 1662
Assign rand_sets[2]: 1921  LLC: 2048
rand_sets[2]: 1921
Assign rand_sets[3]: 1131  LLC: 2048
rand_sets[3]: 1131
Assign rand_sets[4]: 331  LLC: 2048
rand_sets[4]: 331
Assign rand_sets[5]: 1531  LLC: 2048
rand_sets[5]: 1531
Assign rand_sets[6]: 482  LLC: 2048
rand_sets[6]: 482
Assign rand_sets[7]: 1275  LLC: 2048
rand_sets[7]: 1275
Assign rand_sets[8]: 1876  LLC: 2048
rand_sets[8]: 1876
Assign rand_sets[9]: 2038  LLC: 2048
rand_sets[9]: 2038
Assign rand_sets[10]: 701  LLC: 2048
rand_sets[10]: 701
Assign rand_sets[11]: 479  LLC: 2048
rand_sets[11]: 479
Assign rand_sets[12]: 892  LLC: 2048
rand_sets[12]: 892
Assign rand_sets[13]: 1820  LLC: 2048
rand_sets[13]: 1820
Assign rand_sets[14]: 1505  LLC: 2048
rand_sets[14]: 1505
Assign rand_sets[15]: 1159  LLC: 2048
rand_sets[15]: 1159
Assign rand_sets[16]: 513  LLC: 2048
rand_sets[16]: 513
Assign rand_sets[17]: 703  LLC: 2048
rand_sets[17]: 703
Assign rand_sets[18]: 561  LLC: 2048
rand_sets[18]: 561
Assign rand_sets[19]: 990  LLC: 2048
rand_sets[19]: 990
Assign rand_sets[20]: 342  LLC: 2048
rand_sets[20]: 342
Assign rand_sets[21]: 882  LLC: 2048
rand_sets[21]: 882
Assign rand_sets[22]: 15  LLC: 2048
rand_sets[22]: 15
Assign rand_sets[23]: 71  LLC: 2048
rand_sets[23]: 71
Assign rand_sets[24]: 1127  LLC: 2048
rand_sets[24]: 1127
Assign rand_sets[25]: 1382  LLC: 2048
rand_sets[25]: 1382
Assign rand_sets[26]: 647  LLC: 2048
rand_sets[26]: 647
Assign rand_sets[27]: 857  LLC: 2048
rand_sets[27]: 857
Assign rand_sets[28]: 1450  LLC: 2048
rand_sets[28]: 1450
Assign rand_sets[29]: 1160  LLC: 2048
rand_sets[29]: 1160
Assign rand_sets[30]: 1852  LLC: 2048
rand_sets[30]: 1852
Assign rand_sets[31]: 1881  LLC: 2048
rand_sets[31]: 1881
Assign rand_sets[32]: 1770  LLC: 2048
rand_sets[32]: 1770
Assign rand_sets[33]: 1622  LLC: 2048
rand_sets[33]: 1622
Assign rand_sets[34]: 275  LLC: 2048
rand_sets[34]: 275
Assign rand_sets[35]: 635  LLC: 2048
rand_sets[35]: 635
Assign rand_sets[36]: 466  LLC: 2048
rand_sets[36]: 466
Assign rand_sets[37]: 1413  LLC: 2048
rand_sets[37]: 1413
Assign rand_sets[38]: 417  LLC: 2048
rand_sets[38]: 417
Assign rand_sets[39]: 472  LLC: 2048
rand_sets[39]: 472
Assign rand_sets[40]: 1340  LLC: 2048
rand_sets[40]: 1340
Assign rand_sets[41]: 852  LLC: 2048
rand_sets[41]: 852
Assign rand_sets[42]: 1365  LLC: 2048
rand_sets[42]: 1365
Assign rand_sets[43]: 47  LLC: 2048
rand_sets[43]: 47
Assign rand_sets[44]: 823  LLC: 2048
rand_sets[44]: 823
Assign rand_sets[45]: 686  LLC: 2048
rand_sets[45]: 686
Assign rand_sets[46]: 1637  LLC: 2048
rand_sets[46]: 1637
Assign rand_sets[47]: 1115  LLC: 2048
rand_sets[47]: 1115
Assign rand_sets[48]: 986  LLC: 2048
rand_sets[48]: 986
Assign rand_sets[49]: 258  LLC: 2048
rand_sets[49]: 258
Assign rand_sets[50]: 633  LLC: 2048
rand_sets[50]: 633
Assign rand_sets[51]: 920  LLC: 2048
rand_sets[51]: 920
Assign rand_sets[52]: 204  LLC: 2048
rand_sets[52]: 204
Assign rand_sets[53]: 227  LLC: 2048
rand_sets[53]: 227
Assign rand_sets[54]: 1818  LLC: 2048
rand_sets[54]: 1818
Assign rand_sets[55]: 886  LLC: 2048
rand_sets[55]: 886
Assign rand_sets[56]: 1422  LLC: 2048
rand_sets[56]: 1422
Assign rand_sets[57]: 607  LLC: 2048
rand_sets[57]: 607
Assign rand_sets[58]: 217  LLC: 2048
rand_sets[58]: 217
Assign rand_sets[59]: 1945  LLC: 2048
rand_sets[59]: 1945
Assign rand_sets[60]: 143  LLC: 2048
rand_sets[60]: 143
Assign rand_sets[61]: 1311  LLC: 2048
rand_sets[61]: 1311
Assign rand_sets[62]: 319  LLC: 2048
rand_sets[62]: 319
Assign rand_sets[63]: 1846  LLC: 2048
rand_sets[63]: 1846
LLC Next Line Prefetcher
warmup_instructions 100000000
simulation_instructions 100000000
champsim_seed 222

num_cpus 1
cpu_freq 4000
dram_io_freq 2400
page_size 4096
block_size 64
max_read_per_cycle 8
max_fill_per_cycle 1
dram_channels 1
dram_ranks 1
dram_banks 8
dram_rows 65536
dram_columns 128
dram_row_size 8
dram_size 4096
dram_pages 1048576

fetch_width 6
decode_width 6
exec_width 4
lq_width 2
sq_width 2
retire_width 4
scheduler_size 128
branch_mispredict_penalty 20
rob_size 256
lq_size 72
sq_size 56
num_instr_destinations_sparc 4
num_instr_destinations 2
num_instr_sources 4

itlb_set 16
itlb_way 8
itlb_rq_size 16
itlb_wq_size 16
itlb_pq_size 0
itlb_mshr_size 8
itlb_latency 1

dtlb_set 16
dtlb_way 4
dtlb_rq_size 16
dtlb_wq_size 16
dtlb_pq_size 0
dtlb_mshr_size 8
dtlb_latency 1

stlb_set 128
stlb_way 12
stlb_rq_size 32
stlb_wq_size 32
stlb_pq_size 0
stlb_mshr_size 16
stlb_latency 8

l1i_size 32
l1i_set 64
l1i_way 8
l1i_rq_size 64
l1i_wq_size 64
l1i_pq_size 8
l1i_mshr_size 8
l1i_latency 1

l1d_size 32
l1d_set 64
l1d_way 8
l1d_rq_size 64
l1d_wq_size 64
l1d_pq_size 8
l1d_mshr_size 16
l1d_latency 4

l2c_size 512
l2c_set 1024
l2c_way 8
l2c_rq_size 32
l2c_wq_size 32
l2c_pq_size 16
l2c_mshr_size 32
l2c_latency 10

llc_size 2048
llc_set 2048
llc_way 16
llc_rq_size 32
llc_wq_size 32
llc_pq_size 32
llc_mshr_size 64
llc_latency 20

dram_channel_width 8
dram_wq_size 64
dram_rq_size 64
tRP 15
tRCD 15
tCAS 12.5
dram_dbus_turn_around_time 30
dram_write_high_wm 56
dram_write_low_wm 48
min_dram_writes_per_switch 16
dram_mtps 2400
dram_dbus_return_time 13


Heartbeat CPU  0 instructions:    1000000 cycles:     581510 heartbeat IPC: 1.71966 cumulative IPC: 1.71966 (Simulation time: 0 hr 0 min 1 sec) 
Heartbeat CPU  0 instructions:    2000003 cycles:    1163543 heartbeat IPC: 1.71812 cumulative IPC: 1.71889 (Simulation time: 0 hr 0 min 2 sec) 
Heartbeat CPU  0 instructions:    3000002 cycles:    1745575 heartbeat IPC: 1.71812 cumulative IPC: 1.71863 (Simulation time: 0 hr 0 min 3 sec) 
Heartbeat CPU  0 instructions:    4000000 cycles:    2327604 heartbeat IPC: 1.71812 cumulative IPC: 1.71851 (Simulation time: 0 hr 0 min 4 sec) 
Heartbeat CPU  0 instructions:    5000000 cycles:    2909636 heartbeat IPC: 1.71812 cumulative IPC: 1.71843 (Simulation time: 0 hr 0 min 4 sec) 
Heartbeat CPU  0 instructions:    6000000 cycles:    3491670 heartbeat IPC: 1.71811 cumulative IPC: 1.71838 (Simulation time: 0 hr 0 min 5 sec) 
Heartbeat CPU  0 instructions:    7000000 cycles:    4073701 heartbeat IPC: 1.71812 cumulative IPC: 1.71834 (Simulation time: 0 hr 0 min 6 sec) 
Heartbeat CPU  0 instructions:    8000000 cycles:    4655734 heartbeat IPC: 1.71812 cumulative IPC: 1.71831 (Simulation time: 0 hr 0 min 7 sec) 
Heartbeat CPU  0 instructions:    9000002 cycles:    5192886 heartbeat IPC: 1.86167 cumulative IPC: 1.73314 (Simulation time: 0 hr 0 min 8 sec) 
Heartbeat CPU  0 instructions:   10000002 cycles:    5715748 heartbeat IPC: 1.91255 cumulative IPC: 1.74955 (Simulation time: 0 hr 0 min 10 sec) 
Heartbeat CPU  0 instructions:   11000001 cycles:    6238633 heartbeat IPC: 1.91246 cumulative IPC: 1.76321 (Simulation time: 0 hr 0 min 11 sec) 
Heartbeat CPU  0 instructions:   12000000 cycles:    6761495 heartbeat IPC: 1.91255 cumulative IPC: 1.77476 (Simulation time: 0 hr 0 min 12 sec) 
Heartbeat CPU  0 instructions:   13000001 cycles:    7284404 heartbeat IPC: 1.91238 cumulative IPC: 1.78463 (Simulation time: 0 hr 0 min 14 sec) 
Heartbeat CPU  0 instructions:   14000001 cycles:    7807266 heartbeat IPC: 1.91255 cumulative IPC: 1.79320 (Simulation time: 0 hr 0 min 15 sec) 
Heartbeat CPU  0 instructions:   15000000 cycles:    8330151 heartbeat IPC: 1.91246 cumulative IPC: 1.80069 (Simulation time: 0 hr 0 min 17 sec) 
Heartbeat CPU  0 instructions:   16000000 cycles:    8853013 heartbeat IPC: 1.91255 cumulative IPC: 1.80729 (Simulation time: 0 hr 0 min 18 sec) 
Heartbeat CPU  0 instructions:   17000000 cycles:    9375922 heartbeat IPC: 1.91238 cumulative IPC: 1.81316 (Simulation time: 0 hr 0 min 20 sec) 
Heartbeat CPU  0 instructions:   18000000 cycles:    9898784 heartbeat IPC: 1.91255 cumulative IPC: 1.81841 (Simulation time: 0 hr 0 min 21 sec) 
Heartbeat CPU  0 instructions:   19000003 cycles:   10421669 heartbeat IPC: 1.91247 cumulative IPC: 1.82312 (Simulation time: 0 hr 0 min 22 sec) 
Heartbeat CPU  0 instructions:   20000000 cycles:   10944531 heartbeat IPC: 1.91254 cumulative IPC: 1.82740 (Simulation time: 0 hr 0 min 24 sec) 
Heartbeat CPU  0 instructions:   21000003 cycles:   11467440 heartbeat IPC: 1.91238 cumulative IPC: 1.83127 (Simulation time: 0 hr 0 min 25 sec) 
Heartbeat CPU  0 instructions:   22000003 cycles:   11990302 heartbeat IPC: 1.91255 cumulative IPC: 1.83482 (Simulation time: 0 hr 0 min 26 sec) 
Heartbeat CPU  0 instructions:   23000000 cycles:   12504818 heartbeat IPC: 1.94357 cumulative IPC: 1.83929 (Simulation time: 0 hr 0 min 28 sec) 
Heartbeat CPU  0 instructions:   24000000 cycles:   12925099 heartbeat IPC: 2.37936 cumulative IPC: 1.85685 (Simulation time: 0 hr 0 min 29 sec) 
Heartbeat CPU  0 instructions:   25000000 cycles:   13345375 heartbeat IPC: 2.37939 cumulative IPC: 1.87331 (Simulation time: 0 hr 0 min 29 sec) 
Heartbeat CPU  0 instructions:   26000000 cycles:   13765661 heartbeat IPC: 2.37933 cumulative IPC: 1.88876 (Simulation time: 0 hr 0 min 30 sec) 
Heartbeat CPU  0 instructions:   27000000 cycles:   14185972 heartbeat IPC: 2.37919 cumulative IPC: 1.90329 (Simulation time: 0 hr 0 min 31 sec) 
Heartbeat CPU  0 instructions:   28000000 cycles:   14606280 heartbeat IPC: 2.37921 cumulative IPC: 1.91698 (Simulation time: 0 hr 0 min 32 sec) 
Heartbeat CPU  0 instructions:   29000002 cycles:   15026558 heartbeat IPC: 2.37938 cumulative IPC: 1.92992 (Simulation time: 0 hr 0 min 32 sec) 
Heartbeat CPU  0 instructions:   30000003 cycles:   15446824 heartbeat IPC: 2.37945 cumulative IPC: 1.94215 (Simulation time: 0 hr 0 min 33 sec) 
Heartbeat CPU  0 instructions:   31000001 cycles:   15867118 heartbeat IPC: 2.37928 cumulative IPC: 1.95373 (Simulation time: 0 hr 0 min 34 sec) 
Heartbeat CPU  0 instructions:   32000000 cycles:   16287437 heartbeat IPC: 2.37914 cumulative IPC: 1.96470 (Simulation time: 0 hr 0 min 35 sec) 
Heartbeat CPU  0 instructions:   33000003 cycles:   16707711 heartbeat IPC: 2.37941 cumulative IPC: 1.97514 (Simulation time: 0 hr 0 min 35 sec) 
Heartbeat CPU  0 instructions:   34000000 cycles:   17127973 heartbeat IPC: 2.37946 cumulative IPC: 1.98506 (Simulation time: 0 hr 0 min 36 sec) 
Heartbeat CPU  0 instructions:   35000002 cycles:   17548262 heartbeat IPC: 2.37932 cumulative IPC: 1.99450 (Simulation time: 0 hr 0 min 37 sec) 
Heartbeat CPU  0 instructions:   36000000 cycles:   17968575 heartbeat IPC: 2.37917 cumulative IPC: 2.00350 (Simulation time: 0 hr 0 min 38 sec) 
Heartbeat CPU  0 instructions:   37000000 cycles:   18388891 heartbeat IPC: 2.37916 cumulative IPC: 2.01208 (Simulation time: 0 hr 0 min 39 sec) 
Heartbeat CPU  0 instructions:   38000002 cycles:   18809160 heartbeat IPC: 2.37943 cumulative IPC: 2.02029 (Simulation time: 0 hr 0 min 39 sec) 
Heartbeat CPU  0 instructions:   39000000 cycles:   19229443 heartbeat IPC: 2.37934 cumulative IPC: 2.02814 (Simulation time: 0 hr 0 min 40 sec) 
Heartbeat CPU  0 instructions:   40000000 cycles:   19649737 heartbeat IPC: 2.37929 cumulative IPC: 2.03565 (Simulation time: 0 hr 0 min 41 sec) 
Heartbeat CPU  0 instructions:   41000002 cycles:   20070073 heartbeat IPC: 2.37905 cumulative IPC: 2.04284 (Simulation time: 0 hr 0 min 42 sec) 
Heartbeat CPU  0 instructions:   42000003 cycles:   20490343 heartbeat IPC: 2.37943 cumulative IPC: 2.04975 (Simulation time: 0 hr 0 min 42 sec) 
Heartbeat CPU  0 instructions:   43000001 cycles:   20910613 heartbeat IPC: 2.37942 cumulative IPC: 2.05637 (Simulation time: 0 hr 0 min 43 sec) 
Heartbeat CPU  0 instructions:   44000000 cycles:   21330883 heartbeat IPC: 2.37942 cumulative IPC: 2.06274 (Simulation time: 0 hr 0 min 44 sec) 
Heartbeat CPU  0 instructions:   45000001 cycles:   21751186 heartbeat IPC: 2.37924 cumulative IPC: 2.06885 (Simulation time: 0 hr 0 min 45 sec) 
Heartbeat CPU  0 instructions:   46000001 cycles:   22171493 heartbeat IPC: 2.37921 cumulative IPC: 2.07474 (Simulation time: 0 hr 0 min 45 sec) 
Heartbeat CPU  0 instructions:   47000000 cycles:   22751000 heartbeat IPC: 1.72560 cumulative IPC: 2.06584 (Simulation time: 0 hr 0 min 46 sec) 
Heartbeat CPU  0 instructions:   48000000 cycles:   23333739 heartbeat IPC: 1.71603 cumulative IPC: 2.05711 (Simulation time: 0 hr 0 min 47 sec) 
Heartbeat CPU  0 instructions:   49000000 cycles:   23916483 heartbeat IPC: 1.71602 cumulative IPC: 2.04880 (Simulation time: 0 hr 0 min 48 sec) 
Heartbeat CPU  0 instructions:   50000002 cycles:   24499225 heartbeat IPC: 1.71603 cumulative IPC: 2.04088 (Simulation time: 0 hr 0 min 49 sec) 
Heartbeat CPU  0 instructions:   51000002 cycles:   25081966 heartbeat IPC: 1.71603 cumulative IPC: 2.03333 (Simulation time: 0 hr 0 min 50 sec) 
Heartbeat CPU  0 instructions:   52000000 cycles:   25664705 heartbeat IPC: 1.71603 cumulative IPC: 2.02613 (Simulation time: 0 hr 0 min 51 sec) 
Heartbeat CPU  0 instructions:   53000000 cycles:   26247446 heartbeat IPC: 1.71603 cumulative IPC: 2.01924 (Simulation time: 0 hr 0 min 51 sec) 
Heartbeat CPU  0 instructions:   54000003 cycles:   26830189 heartbeat IPC: 1.71603 cumulative IPC: 2.01266 (Simulation time: 0 hr 0 min 52 sec) 
Heartbeat CPU  0 instructions:   55000002 cycles:   27412931 heartbeat IPC: 1.71602 cumulative IPC: 2.00635 (Simulation time: 0 hr 0 min 53 sec) 
Heartbeat CPU  0 instructions:   56000000 cycles:   27995670 heartbeat IPC: 1.71603 cumulative IPC: 2.00031 (Simulation time: 0 hr 0 min 54 sec) 
Heartbeat CPU  0 instructions:   57000000 cycles:   28578412 heartbeat IPC: 1.71603 cumulative IPC: 1.99451 (Simulation time: 0 hr 0 min 55 sec) 
Heartbeat CPU  0 instructions:   58000000 cycles:   29161156 heartbeat IPC: 1.71602 cumulative IPC: 1.98895 (Simulation time: 0 hr 0 min 56 sec) 
Heartbeat CPU  0 instructions:   59000000 cycles:   29743897 heartbeat IPC: 1.71603 cumulative IPC: 1.98360 (Simulation time: 0 hr 0 min 56 sec) 
Heartbeat CPU  0 instructions:   60000000 cycles:   30326640 heartbeat IPC: 1.71602 cumulative IPC: 1.97846 (Simulation time: 0 hr 0 min 57 sec) 
Heartbeat CPU  0 instructions:   61000002 cycles:   30909380 heartbeat IPC: 1.71603 cumulative IPC: 1.97351 (Simulation time: 0 hr 0 min 58 sec) 
Heartbeat CPU  0 instructions:   62000002 cycles:   31492121 heartbeat IPC: 1.71603 cumulative IPC: 1.96875 (Simulation time: 0 hr 0 min 59 sec) 
Heartbeat CPU  0 instructions:   63000001 cycles:   32074863 heartbeat IPC: 1.71602 cumulative IPC: 1.96415 (Simulation time: 0 hr 1 min 0 sec) 
Heartbeat CPU  0 instructions:   64000000 cycles:   32657602 heartbeat IPC: 1.71603 cumulative IPC: 1.95973 (Simulation time: 0 hr 1 min 1 sec) 
Heartbeat CPU  0 instructions:   65000003 cycles:   33240345 heartbeat IPC: 1.71603 cumulative IPC: 1.95546 (Simulation time: 0 hr 1 min 2 sec) 
Heartbeat CPU  0 instructions:   66000002 cycles:   33823087 heartbeat IPC: 1.71602 cumulative IPC: 1.95133 (Simulation time: 0 hr 1 min 2 sec) 
Heartbeat CPU  0 instructions:   67000001 cycles:   34405826 heartbeat IPC: 1.71603 cumulative IPC: 1.94734 (Simulation time: 0 hr 1 min 3 sec) 
Heartbeat CPU  0 instructions:   68000000 cycles:   34988569 heartbeat IPC: 1.71602 cumulative IPC: 1.94349 (Simulation time: 0 hr 1 min 4 sec) 
Heartbeat CPU  0 instructions:   69000000 cycles:   35571314 heartbeat IPC: 1.71602 cumulative IPC: 1.93977 (Simulation time: 0 hr 1 min 5 sec) 
Heartbeat CPU  0 instructions:   70000000 cycles:   36097436 heartbeat IPC: 1.90070 cumulative IPC: 1.93920 (Simulation time: 0 hr 1 min 6 sec) 
Heartbeat CPU  0 instructions:   71000003 cycles:   36618086 heartbeat IPC: 1.92068 cumulative IPC: 1.93893 (Simulation time: 0 hr 1 min 8 sec) 
Heartbeat CPU  0 instructions:   72000000 cycles:   37138716 heartbeat IPC: 1.92074 cumulative IPC: 1.93868 (Simulation time: 0 hr 1 min 9 sec) 
Heartbeat CPU  0 instructions:   73000002 cycles:   37659393 heartbeat IPC: 1.92058 cumulative IPC: 1.93843 (Simulation time: 0 hr 1 min 11 sec) 
Heartbeat CPU  0 instructions:   74000002 cycles:   38180023 heartbeat IPC: 1.92075 cumulative IPC: 1.93819 (Simulation time: 0 hr 1 min 12 sec) 
Heartbeat CPU  0 instructions:   75000001 cycles:   38700677 heartbeat IPC: 1.92066 cumulative IPC: 1.93795 (Simulation time: 0 hr 1 min 13 sec) 
Heartbeat CPU  0 instructions:   76000000 cycles:   39221307 heartbeat IPC: 1.92075 cumulative IPC: 1.93772 (Simulation time: 0 hr 1 min 15 sec) 
Heartbeat CPU  0 instructions:   77000001 cycles:   39741984 heartbeat IPC: 1.92058 cumulative IPC: 1.93750 (Simulation time: 0 hr 1 min 16 sec) 
Heartbeat CPU  0 instructions:   78000001 cycles:   40262614 heartbeat IPC: 1.92075 cumulative IPC: 1.93728 (Simulation time: 0 hr 1 min 18 sec) 
Heartbeat CPU  0 instructions:   79000000 cycles:   40783268 heartbeat IPC: 1.92066 cumulative IPC: 1.93707 (Simulation time: 0 hr 1 min 19 sec) 
Heartbeat CPU  0 instructions:   80000000 cycles:   41303898 heartbeat IPC: 1.92075 cumulative IPC: 1.93686 (Simulation time: 0 hr 1 min 20 sec) 
Heartbeat CPU  0 instructions:   81000000 cycles:   41824575 heartbeat IPC: 1.92058 cumulative IPC: 1.93666 (Simulation time: 0 hr 1 min 22 sec) 
Heartbeat CPU  0 instructions:   82000000 cycles:   42345205 heartbeat IPC: 1.92075 cumulative IPC: 1.93646 (Simulation time: 0 hr 1 min 23 sec) 
Heartbeat CPU  0 instructions:   83000003 cycles:   42865857 heartbeat IPC: 1.92067 cumulative IPC: 1.93627 (Simulation time: 0 hr 1 min 25 sec) 
Heartbeat CPU  0 instructions:   84000000 cycles:   43363103 heartbeat IPC: 2.01107 cumulative IPC: 1.93713 (Simulation time: 0 hr 1 min 26 sec) 
Heartbeat CPU  0 instructions:   85000000 cycles:   43783386 heartbeat IPC: 2.37935 cumulative IPC: 1.94138 (Simulation time: 0 hr 1 min 27 sec) 
Heartbeat CPU  0 instructions:   86000001 cycles:   44203673 heartbeat IPC: 2.37933 cumulative IPC: 1.94554 (Simulation time: 0 hr 1 min 27 sec) 
Heartbeat CPU  0 instructions:   87000003 cycles:   44623974 heartbeat IPC: 2.37925 cumulative IPC: 1.94962 (Simulation time: 0 hr 1 min 28 sec) 
Heartbeat CPU  0 instructions:   88000000 cycles:   45044334 heartbeat IPC: 2.37891 cumulative IPC: 1.95363 (Simulation time: 0 hr 1 min 29 sec) 
Heartbeat CPU  0 instructions:   89000001 cycles:   45464614 heartbeat IPC: 2.37937 cumulative IPC: 1.95757 (Simulation time: 0 hr 1 min 30 sec) 
Heartbeat CPU  0 instructions:   90000001 cycles:   45884893 heartbeat IPC: 2.37937 cumulative IPC: 1.96143 (Simulation time: 0 hr 1 min 30 sec) 
Heartbeat CPU  0 instructions:   91000000 cycles:   46305173 heartbeat IPC: 2.37936 cumulative IPC: 1.96522 (Simulation time: 0 hr 1 min 31 sec) 
Heartbeat CPU  0 instructions:   92000000 cycles:   46725480 heartbeat IPC: 2.37921 cumulative IPC: 1.96895 (Simulation time: 0 hr 1 min 32 sec) 
Heartbeat CPU  0 instructions:   93000003 cycles:   47145813 heartbeat IPC: 2.37907 cumulative IPC: 1.97260 (Simulation time: 0 hr 1 min 33 sec) 
Heartbeat CPU  0 instructions:   94000000 cycles:   47566095 heartbeat IPC: 2.37935 cumulative IPC: 1.97620 (Simulation time: 0 hr 1 min 33 sec) 
Heartbeat CPU  0 instructions:   95000002 cycles:   47986378 heartbeat IPC: 2.37935 cumulative IPC: 1.97973 (Simulation time: 0 hr 1 min 34 sec) 
Heartbeat CPU  0 instructions:   96000000 cycles:   48406673 heartbeat IPC: 2.37928 cumulative IPC: 1.98320 (Simulation time: 0 hr 1 min 35 sec) 
Heartbeat CPU  0 instructions:   97000000 cycles:   48827029 heartbeat IPC: 2.37894 cumulative IPC: 1.98660 (Simulation time: 0 hr 1 min 36 sec) 
Heartbeat CPU  0 instructions:   98000000 cycles:   49247319 heartbeat IPC: 2.37931 cumulative IPC: 1.98996 (Simulation time: 0 hr 1 min 36 sec) 
Heartbeat CPU  0 instructions:   99000003 cycles:   49667614 heartbeat IPC: 2.37929 cumulative IPC: 1.99325 (Simulation time: 0 hr 1 min 37 sec) 
Heartbeat CPU  0 instructions:  100000000 cycles:   50087899 heartbeat IPC: 2.37933 cumulative IPC: 1.99649 (Simulation time: 0 hr 1 min 38 sec) 

Warmup complete CPU  0 instructions:  100000001 cycles:   50087901 (Simulation time: 0 hr 1 min 38 sec) 

Heartbeat CPU  0 instructions:  101000003 cycles:   51158620 heartbeat IPC: 0.93395 cumulative IPC: 0.93395 (Simulation time: 0 hr 1 min 39 sec) 
Heartbeat CPU  0 instructions:  102000003 cycles:   52235596 heartbeat IPC: 0.92853 cumulative IPC: 0.93123 (Simulation time: 0 hr 1 min 41 sec) 
Heartbeat CPU  0 instructions:  103000001 cycles:   53311031 heartbeat IPC: 0.92985 cumulative IPC: 0.93077 (Simulation time: 0 hr 1 min 42 sec) 
Heartbeat CPU  0 instructions:  104000000 cycles:   54386162 heartbeat IPC: 0.93012 cumulative IPC: 0.93061 (Simulation time: 0 hr 1 min 44 sec) 
Heartbeat CPU  0 instructions:  105000000 cycles:   55461303 heartbeat IPC: 0.93011 cumulative IPC: 0.93051 (Simulation time: 0 hr 1 min 45 sec) 
Heartbeat CPU  0 instructions:  106000002 cycles:   56533050 heartbeat IPC: 0.93306 cumulative IPC: 0.93093 (Simulation time: 0 hr 1 min 46 sec) 
Heartbeat CPU  0 instructions:  107000000 cycles:   57614264 heartbeat IPC: 0.92488 cumulative IPC: 0.93006 (Simulation time: 0 hr 1 min 48 sec) 
Heartbeat CPU  0 instructions:  108000000 cycles:   58704022 heartbeat IPC: 0.91763 cumulative IPC: 0.92849 (Simulation time: 0 hr 1 min 49 sec) 
Heartbeat CPU  0 instructions:  109000000 cycles:   59827085 heartbeat IPC: 0.89042 cumulative IPC: 0.92410 (Simulation time: 0 hr 1 min 51 sec) 
Heartbeat CPU  0 instructions:  110000001 cycles:   60971555 heartbeat IPC: 0.87377 cumulative IPC: 0.91881 (Simulation time: 0 hr 1 min 52 sec) 
Heartbeat CPU  0 instructions:  111000001 cycles:   62115726 heartbeat IPC: 0.87400 cumulative IPC: 0.91455 (Simulation time: 0 hr 1 min 53 sec) 
Heartbeat CPU  0 instructions:  112000000 cycles:   63265261 heartbeat IPC: 0.86992 cumulative IPC: 0.91065 (Simulation time: 0 hr 1 min 55 sec) 
Heartbeat CPU  0 instructions:  113000002 cycles:   64417003 heartbeat IPC: 0.86825 cumulative IPC: 0.90724 (Simulation time: 0 hr 1 min 56 sec) 
Heartbeat CPU  0 instructions:  114000002 cycles:   65555205 heartbeat IPC: 0.87858 cumulative IPC: 0.90514 (Simulation time: 0 hr 1 min 57 sec) 
Heartbeat CPU  0 instructions:  115000003 cycles:   66690596 heartbeat IPC: 0.88075 cumulative IPC: 0.90347 (Simulation time: 0 hr 1 min 59 sec) 
Heartbeat CPU  0 instructions:  116000000 cycles:   67834955 heartbeat IPC: 0.87385 cumulative IPC: 0.90156 (Simulation time: 0 hr 2 min 0 sec) 
Heartbeat CPU  0 instructions:  117000000 cycles:   68973167 heartbeat IPC: 0.87857 cumulative IPC: 0.90017 (Simulation time: 0 hr 2 min 2 sec) 
Heartbeat CPU  0 instructions:  118000000 cycles:   70120588 heartbeat IPC: 0.87152 cumulative IPC: 0.89853 (Simulation time: 0 hr 2 min 3 sec) 
Heartbeat CPU  0 instructions:  119000001 cycles:   71267997 heartbeat IPC: 0.87153 cumulative IPC: 0.89707 (Simulation time: 0 hr 2 min 4 sec) 
Heartbeat CPU  0 instructions:  120000000 cycles:   72410880 heartbeat IPC: 0.87498 cumulative IPC: 0.89594 (Simulation time: 0 hr 2 min 6 sec) 
Heartbeat CPU  0 instructions:  121000000 cycles:   73548825 heartbeat IPC: 0.87878 cumulative IPC: 0.89511 (Simulation time: 0 hr 2 min 7 sec) 
Heartbeat CPU  0 instructions:  122000002 cycles:   74705388 heartbeat IPC: 0.86463 cumulative IPC: 0.89367 (Simulation time: 0 hr 2 min 9 sec) 
Heartbeat CPU  0 instructions:  123000002 cycles:   75854868 heartbeat IPC: 0.86996 cumulative IPC: 0.89262 (Simulation time: 0 hr 2 min 10 sec) 
Heartbeat CPU  0 instructions:  124000000 cycles:   77000573 heartbeat IPC: 0.87282 cumulative IPC: 0.89177 (Simulation time: 0 hr 2 min 11 sec) 
Heartbeat CPU  0 instructions:  125000003 cycles:   78129388 heartbeat IPC: 0.88589 cumulative IPC: 0.89154 (Simulation time: 0 hr 2 min 13 sec) 
Heartbeat CPU  0 instructions:  126000000 cycles:   79265147 heartbeat IPC: 0.88047 cumulative IPC: 0.89111 (Simulation time: 0 hr 2 min 14 sec) 
Heartbeat CPU  0 instructions:  127000000 cycles:   80399598 heartbeat IPC: 0.88148 cumulative IPC: 0.89075 (Simulation time: 0 hr 2 min 16 sec) 
Heartbeat CPU  0 instructions:  128000000 cycles:   81543313 heartbeat IPC: 0.87434 cumulative IPC: 0.89015 (Simulation time: 0 hr 2 min 17 sec) 
Heartbeat CPU  0 instructions:  129000001 cycles:   82679149 heartbeat IPC: 0.88041 cumulative IPC: 0.88981 (Simulation time: 0 hr 2 min 18 sec) 
Heartbeat CPU  0 instructions:  130000001 cycles:   83822775 heartbeat IPC: 0.87441 cumulative IPC: 0.88929 (Simulation time: 0 hr 2 min 20 sec) 
Heartbeat CPU  0 instructions:  131000000 cycles:   85544847 heartbeat IPC: 0.58070 cumulative IPC: 0.87430 (Simulation time: 0 hr 2 min 22 sec) 
Heartbeat CPU  0 instructions:  132000000 cycles:   87828898 heartbeat IPC: 0.43782 cumulative IPC: 0.84788 (Simulation time: 0 hr 2 min 24 sec) 
Heartbeat CPU  0 instructions:  133000000 cycles:   90121719 heartbeat IPC: 0.43614 cumulative IPC: 0.82430 (Simulation time: 0 hr 2 min 26 sec) 
Heartbeat CPU  0 instructions:  134000000 cycles:   92399144 heartbeat IPC: 0.43909 cumulative IPC: 0.80357 (Simulation time: 0 hr 2 min 28 sec) 
Heartbeat CPU  0 instructions:  135000000 cycles:   94658649 heartbeat IPC: 0.44257 cumulative IPC: 0.78527 (Simulation time: 0 hr 2 min 30 sec) 
Heartbeat CPU  0 instructions:  136000000 cycles:   96921713 heartbeat IPC: 0.44188 cumulative IPC: 0.76868 (Simulation time: 0 hr 2 min 32 sec) 
Heartbeat CPU  0 instructions:  137000000 cycles:   99195070 heartbeat IPC: 0.43988 cumulative IPC: 0.75345 (Simulation time: 0 hr 2 min 35 sec) 
Heartbeat CPU  0 instructions:  138000000 cycles:  101457577 heartbeat IPC: 0.44199 cumulative IPC: 0.73974 (Simulation time: 0 hr 2 min 37 sec) 
Heartbeat CPU  0 instructions:  139000000 cycles:  103716262 heartbeat IPC: 0.44274 cumulative IPC: 0.72723 (Simulation time: 0 hr 2 min 39 sec) 
Heartbeat CPU  0 instructions:  140000000 cycles:  105989578 heartbeat IPC: 0.43989 cumulative IPC: 0.71554 (Simulation time: 0 hr 2 min 41 sec) 
Heartbeat CPU  0 instructions:  141000000 cycles:  108251076 heartbeat IPC: 0.44218 cumulative IPC: 0.70491 (Simulation time: 0 hr 2 min 43 sec) 
Heartbeat CPU  0 instructions:  142000000 cycles:  110505355 heartbeat IPC: 0.44360 cumulative IPC: 0.69516 (Simulation time: 0 hr 2 min 46 sec) 
Heartbeat CPU  0 instructions:  143000000 cycles:  112760154 heartbeat IPC: 0.44350 cumulative IPC: 0.68611 (Simulation time: 0 hr 2 min 48 sec) 
Heartbeat CPU  0 instructions:  144000000 cycles:  115014281 heartbeat IPC: 0.44363 cumulative IPC: 0.67769 (Simulation time: 0 hr 2 min 50 sec) 
Heartbeat CPU  0 instructions:  145000002 cycles:  117077934 heartbeat IPC: 0.48458 cumulative IPC: 0.67174 (Simulation time: 0 hr 2 min 52 sec) 
Heartbeat CPU  0 instructions:  146000000 cycles:  118674182 heartbeat IPC: 0.62647 cumulative IPC: 0.67069 (Simulation time: 0 hr 2 min 54 sec) 
Heartbeat CPU  0 instructions:  147000000 cycles:  120162204 heartbeat IPC: 0.67203 cumulative IPC: 0.67072 (Simulation time: 0 hr 2 min 55 sec) 
Heartbeat CPU  0 instructions:  148000000 cycles:  121303100 heartbeat IPC: 0.87650 cumulative IPC: 0.67401 (Simulation time: 0 hr 2 min 57 sec) 
Heartbeat CPU  0 instructions:  149000000 cycles:  122407192 heartbeat IPC: 0.90572 cumulative IPC: 0.67755 (Simulation time: 0 hr 2 min 58 sec) 
Heartbeat CPU  0 instructions:  150000000 cycles:  123498028 heartbeat IPC: 0.91673 cumulative IPC: 0.68110 (Simulation time: 0 hr 3 min 0 sec) 
Heartbeat CPU  0 instructions:  151000001 cycles:  124588163 heartbeat IPC: 0.91732 cumulative IPC: 0.68456 (Simulation time: 0 hr 3 min 1 sec) 
Heartbeat CPU  0 instructions:  152000000 cycles:  125676496 heartbeat IPC: 0.91884 cumulative IPC: 0.68793 (Simulation time: 0 hr 3 min 2 sec) 
Heartbeat CPU  0 instructions:  153000001 cycles:  126757275 heartbeat IPC: 0.92526 cumulative IPC: 0.69128 (Simulation time: 0 hr 3 min 4 sec) 
Heartbeat CPU  0 instructions:  154000003 cycles:  127846264 heartbeat IPC: 0.91828 cumulative IPC: 0.69446 (Simulation time: 0 hr 3 min 5 sec) 
Heartbeat CPU  0 instructions:  155000001 cycles:  128934068 heartbeat IPC: 0.91928 cumulative IPC: 0.69756 (Simulation time: 0 hr 3 min 7 sec) 
Heartbeat CPU  0 instructions:  156000000 cycles:  130020625 heartbeat IPC: 0.92034 cumulative IPC: 0.70059 (Simulation time: 0 hr 3 min 8 sec) 
Heartbeat CPU  0 instructions:  157000002 cycles:  131102496 heartbeat IPC: 0.92433 cumulative IPC: 0.70358 (Simulation time: 0 hr 3 min 10 sec) 
Heartbeat CPU  0 instructions:  158000000 cycles:  132188643 heartbeat IPC: 0.92068 cumulative IPC: 0.70645 (Simulation time: 0 hr 3 min 11 sec) 
Heartbeat CPU  0 instructions:  159000002 cycles:  133273594 heartbeat IPC: 0.92170 cumulative IPC: 0.70926 (Simulation time: 0 hr 3 min 12 sec) 
Heartbeat CPU  0 instructions:  160000000 cycles:  134363750 heartbeat IPC: 0.91730 cumulative IPC: 0.71195 (Simulation time: 0 hr 3 min 14 sec) 
Heartbeat CPU  0 instructions:  161000000 cycles:  135449792 heartbeat IPC: 0.92077 cumulative IPC: 0.71460 (Simulation time: 0 hr 3 min 15 sec) 
Heartbeat CPU  0 instructions:  162000002 cycles:  136539488 heartbeat IPC: 0.91769 cumulative IPC: 0.71716 (Simulation time: 0 hr 3 min 17 sec) 
Heartbeat CPU  0 instructions:  163000000 cycles:  137620528 heartbeat IPC: 0.92503 cumulative IPC: 0.71973 (Simulation time: 0 hr 3 min 18 sec) 
Heartbeat CPU  0 instructions:  164000000 cycles:  138700324 heartbeat IPC: 0.92610 cumulative IPC: 0.72225 (Simulation time: 0 hr 3 min 19 sec) 
Heartbeat CPU  0 instructions:  165000001 cycles:  139785588 heartbeat IPC: 0.92144 cumulative IPC: 0.72466 (Simulation time: 0 hr 3 min 21 sec) 
Heartbeat CPU  0 instructions:  166000003 cycles:  140868097 heartbeat IPC: 0.92378 cumulative IPC: 0.72703 (Simulation time: 0 hr 3 min 22 sec) 
Heartbeat CPU  0 instructions:  167000001 cycles:  141950153 heartbeat IPC: 0.92416 cumulative IPC: 0.72935 (Simulation time: 0 hr 3 min 24 sec) 
Heartbeat CPU  0 instructions:  168000000 cycles:  143038326 heartbeat IPC: 0.91897 cumulative IPC: 0.73157 (Simulation time: 0 hr 3 min 25 sec) 
Heartbeat CPU  0 instructions:  169000000 cycles:  144172741 heartbeat IPC: 0.88151 cumulative IPC: 0.73338 (Simulation time: 0 hr 3 min 26 sec) 
Heartbeat CPU  0 instructions:  170000003 cycles:  145384044 heartbeat IPC: 0.82556 cumulative IPC: 0.73455 (Simulation time: 0 hr 3 min 28 sec) 
Heartbeat CPU  0 instructions:  171000001 cycles:  146617504 heartbeat IPC: 0.81073 cumulative IPC: 0.73553 (Simulation time: 0 hr 3 min 29 sec) 
Heartbeat CPU  0 instructions:  172000000 cycles:  147862755 heartbeat IPC: 0.80305 cumulative IPC: 0.73639 (Simulation time: 0 hr 3 min 31 sec) 
Heartbeat CPU  0 instructions:  173000001 cycles:  149100837 heartbeat IPC: 0.80770 cumulative IPC: 0.73728 (Simulation time: 0 hr 3 min 33 sec) 
Heartbeat CPU  0 instructions:  174000000 cycles:  150332249 heartbeat IPC: 0.81208 cumulative IPC: 0.73820 (Simulation time: 0 hr 3 min 34 sec) 
Heartbeat CPU  0 instructions:  175000002 cycles:  151558403 heartbeat IPC: 0.81556 cumulative IPC: 0.73913 (Simulation time: 0 hr 3 min 36 sec) 
Heartbeat CPU  0 instructions:  176000000 cycles:  152776977 heartbeat IPC: 0.82063 cumulative IPC: 0.74010 (Simulation time: 0 hr 3 min 37 sec) 
Heartbeat CPU  0 instructions:  177000002 cycles:  153997409 heartbeat IPC: 0.81938 cumulative IPC: 0.74103 (Simulation time: 0 hr 3 min 39 sec) 
Heartbeat CPU  0 instructions:  178000000 cycles:  155221662 heartbeat IPC: 0.81682 cumulative IPC: 0.74191 (Simulation time: 0 hr 3 min 40 sec) 
Heartbeat CPU  0 instructions:  179000003 cycles:  156451490 heartbeat IPC: 0.81312 cumulative IPC: 0.74274 (Simulation time: 0 hr 3 min 42 sec) 
Heartbeat CPU  0 instructions:  180000000 cycles:  157679775 heartbeat IPC: 0.81414 cumulative IPC: 0.74355 (Simulation time: 0 hr 3 min 43 sec) 
Heartbeat CPU  0 instructions:  181000000 cycles:  158899893 heartbeat IPC: 0.81959 cumulative IPC: 0.74440 (Simulation time: 0 hr 3 min 44 sec) 
Heartbeat CPU  0 instructions:  182000001 cycles:  160112178 heartbeat IPC: 0.82489 cumulative IPC: 0.74529 (Simulation time: 0 hr 3 min 46 sec) 
Heartbeat CPU  0 instructions:  183000000 cycles:  161336562 heartbeat IPC: 0.81674 cumulative IPC: 0.74608 (Simulation time: 0 hr 3 min 47 sec) 
Heartbeat CPU  0 instructions:  184000000 cycles:  162557233 heartbeat IPC: 0.81922 cumulative IPC: 0.74687 (Simulation time: 0 hr 3 min 49 sec) 
Heartbeat CPU  0 instructions:  185000001 cycles:  163777407 heartbeat IPC: 0.81956 cumulative IPC: 0.74765 (Simulation time: 0 hr 3 min 50 sec) 
Heartbeat CPU  0 instructions:  186000002 cycles:  164985394 heartbeat IPC: 0.82782 cumulative IPC: 0.74849 (Simulation time: 0 hr 3 min 52 sec) 
Heartbeat CPU  0 instructions:  187000000 cycles:  166194073 heartbeat IPC: 0.82735 cumulative IPC: 0.74931 (Simulation time: 0 hr 3 min 53 sec) 
Heartbeat CPU  0 instructions:  188000000 cycles:  167402022 heartbeat IPC: 0.82785 cumulative IPC: 0.75012 (Simulation time: 0 hr 3 min 55 sec) 
Heartbeat CPU  0 instructions:  189000001 cycles:  168618764 heartbeat IPC: 0.82187 cumulative IPC: 0.75086 (Simulation time: 0 hr 3 min 56 sec) 
Heartbeat CPU  0 instructions:  190000000 cycles:  169835400 heartbeat IPC: 0.82194 cumulative IPC: 0.75158 (Simulation time: 0 hr 3 min 58 sec) 
Heartbeat CPU  0 instructions:  191000000 cycles:  171057413 heartbeat IPC: 0.81832 cumulative IPC: 0.75226 (Simulation time: 0 hr 3 min 59 sec) 
Heartbeat CPU  0 instructions:  192000000 cycles:  172811272 heartbeat IPC: 0.57017 cumulative IPC: 0.74965 (Simulation time: 0 hr 4 min 1 sec) 
Heartbeat CPU  0 instructions:  193000000 cycles:  175176029 heartbeat IPC: 0.42288 cumulative IPC: 0.74348 (Simulation time: 0 hr 4 min 4 sec) 
Heartbeat CPU  0 instructions:  194000000 cycles:  177549500 heartbeat IPC: 0.42132 cumulative IPC: 0.73748 (Simulation time: 0 hr 4 min 6 sec) 
Heartbeat CPU  0 instructions:  195000000 cycles:  179904077 heartbeat IPC: 0.42470 cumulative IPC: 0.73180 (Simulation time: 0 hr 4 min 8 sec) 
Heartbeat CPU  0 instructions:  196000000 cycles:  182229663 heartbeat IPC: 0.43000 cumulative IPC: 0.72649 (Simulation time: 0 hr 4 min 10 sec) 
Heartbeat CPU  0 instructions:  197000000 cycles:  184564288 heartbeat IPC: 0.42833 cumulative IPC: 0.72132 (Simulation time: 0 hr 4 min 12 sec) 
Heartbeat CPU  0 instructions:  198000000 cycles:  186912112 heartbeat IPC: 0.42593 cumulative IPC: 0.71625 (Simulation time: 0 hr 4 min 14 sec) 
Heartbeat CPU  0 instructions:  199000000 cycles:  189245455 heartbeat IPC: 0.42857 cumulative IPC: 0.71142 (Simulation time: 0 hr 4 min 17 sec) 
Heartbeat CPU  0 instructions:  200000000 cycles:  191571927 heartbeat IPC: 0.42984 cumulative IPC: 0.70679 (Simulation time: 0 hr 4 min 19 sec) 
Finished CPU 0 instructions: 100000000 cycles: 141484039 cumulative IPC: 0.70679 (Simulation time: 0 hr 4 min 19 sec) 

ChampSim completed all CPUs

[ROI Statistics]
Core_0_instructions 100000000
Core_0_cycles 141484039
Core_0_IPC 0.70679

Core_0_branch_prediction_accuracy 99.58952
Core_0_branch_MPKI 0.70683
Core_0_average_ROB_occupancy_at_mispredict 218.78665

Core_0_L1D_total_access 21057894
Core_0_L1D_total_hit 18481657
Core_0_L1D_total_miss 2576237
Core_0_L1D_loads 10147469
Core_0_L1D_load_hit 8141644
Core_0_L1D_load_miss 2005825
Core_0_L1D_RFOs 3492976
Core_0_L1D_RFO_hit 3492956
Core_0_L1D_RFO_miss 20
Core_0_L1D_prefetches 7417449
Core_0_L1D_prefetch_hit 6847057
Core_0_L1D_prefetch_miss 570392
Core_0_L1D_writebacks 0
Core_0_L1D_writeback_hit 0
Core_0_L1D_writeback_miss 0
Core_0_L1D_prefetch_requested 41809469
Core_0_L1D_prefetch_issued 41545351
Core_0_L1D_prefetch_useful 2993182
Core_0_L1D_prefetch_useless 30
Core_0_L1D_prefetch_late 1887400
Core_0_L1D_average_miss_latency 87368514.01080

Core_0_L1I_total_access 32177509
Core_0_L1I_total_hit 32177508
Core_0_L1I_total_miss 1
Core_0_L1I_loads 32177509
Core_0_L1I_load_hit 32177508
Core_0_L1I_load_miss 1
Core_0_L1I_RFOs 0
Core_0_L1I_RFO_hit 0
Core_0_L1I_RFO_miss 0
Core_0_L1I_prefetches 0
Core_0_L1I_prefetch_hit 0
Core_0_L1I_prefetch_miss 0
Core_0_L1I_writebacks 0
Core_0_L1I_writeback_hit 0
Core_0_L1I_writeback_miss 0
Core_0_L1I_prefetch_requested 0
Core_0_L1I_prefetch_issued 0
Core_0_L1I_prefetch_useful 0
Core_0_L1I_prefetch_useless 0
Core_0_L1I_prefetch_late 0
Core_0_L1I_average_miss_latency 180.00000

Core_0_L2C_total_access 3876490
Core_0_L2C_total_hit 1300246
Core_0_L2C_total_miss 2576244
Core_0_L2C_loads 143084
Core_0_L2C_load_hit 1054
Core_0_L2C_load_miss 142030
Core_0_L2C_RFOs 20
Core_0_L2C_RFO_hit 0
Core_0_L2C_RFO_miss 20
Core_0_L2C_prefetches 2783240
Core_0_L2C_prefetch_hit 349046
Core_0_L2C_prefetch_miss 2434194
Core_0_L2C_writebacks 950146
Core_0_L2C_writeback_hit 950146
Core_0_L2C_writeback_miss 0
Core_0_L2C_prefetch_requested 9435678
Core_0_L2C_prefetch_issued 9435678
Core_0_L2C_prefetch_useful 156785
Core_0_L2C_prefetch_useless 4873223
Core_0_L2C_prefetch_late 56868
Core_0_L2C_average_miss_latency 177.37033

Core_0_LLC_total_access 3972174
Core_0_LLC_total_hit 1381586
Core_0_LLC_total_miss 2590588
Core_0_LLC_loads 85162
Core_0_LLC_load_hit 1492
Core_0_LLC_load_miss 83670
Core_0_LLC_RFOs 20
Core_0_LLC_RFO_hit 0
Core_0_LLC_RFO_miss 20
Core_0_LLC_prefetches 2944289
Core_0_LLC_prefetch_hit 451766
Core_0_LLC_prefetch_miss 2492523
Core_0_LLC_writebacks 942703
Core_0_LLC_writeback_hit 928328
Core_0_LLC_writeback_miss 14375
Core_0_LLC_prefetch_requested 4854209
Core_0_LLC_prefetch_issued 4774304
Core_0_LLC_prefetch_useful 1458
Core_0_LLC_prefetch_useless 5062992
Core_0_LLC_prefetch_late 7751
Core_0_LLC_average_miss_latency 178.83053

Core_0_major_page_fault 0
Core_0_minor_page_fault 8199

CPU 0 L1D next line prefetcher final stats
CPU 0 L2C PC-based stride prefetcher final stats
LLC Next Line Prefetcher Final Stats: none
Channel_0_RQ_row_buffer_hit 1502380
Channel_0_RQ_row_buffer_miss 1073833
Channel_0_WQ_row_buffer_hit 301859
Channel_0_WQ_row_buffer_miss 616903
Channel_0_WQ_full 0
Channel_0_dbus_congested 2498745

avg_congested_cycle 11
