*************************************************
   ChampSim Multicore Out-of-Order Simulator
   Last compiled: Dec 21 2023 19:26:40
*************************************************

trace_0 ./test_trace/462.libquantum-714B.champsimtrace.xz
CPU 0 L1D next line prefetcher
CPU 0 L2C IP-based stride prefetcher
Initialize DRRIP state
Assign rand_sets[0]: 454  LLC: 2048
rand_sets[0]: 454
Assign rand_sets[1]: 1662  LLC: 2048
rand_sets[1]: 1662
Assign rand_sets[2]: 1921  LLC: 2048
rand_sets[2]: 1921
Assign rand_sets[3]: 1131  LLC: 2048
rand_sets[3]: 1131
Assign rand_sets[4]: 331  LLC: 2048
rand_sets[4]: 331
Assign rand_sets[5]: 1531  LLC: 2048
rand_sets[5]: 1531
Assign rand_sets[6]: 482  LLC: 2048
rand_sets[6]: 482
Assign rand_sets[7]: 1275  LLC: 2048
rand_sets[7]: 1275
Assign rand_sets[8]: 1876  LLC: 2048
rand_sets[8]: 1876
Assign rand_sets[9]: 2038  LLC: 2048
rand_sets[9]: 2038
Assign rand_sets[10]: 701  LLC: 2048
rand_sets[10]: 701
Assign rand_sets[11]: 479  LLC: 2048
rand_sets[11]: 479
Assign rand_sets[12]: 892  LLC: 2048
rand_sets[12]: 892
Assign rand_sets[13]: 1820  LLC: 2048
rand_sets[13]: 1820
Assign rand_sets[14]: 1505  LLC: 2048
rand_sets[14]: 1505
Assign rand_sets[15]: 1159  LLC: 2048
rand_sets[15]: 1159
Assign rand_sets[16]: 513  LLC: 2048
rand_sets[16]: 513
Assign rand_sets[17]: 703  LLC: 2048
rand_sets[17]: 703
Assign rand_sets[18]: 561  LLC: 2048
rand_sets[18]: 561
Assign rand_sets[19]: 990  LLC: 2048
rand_sets[19]: 990
Assign rand_sets[20]: 342  LLC: 2048
rand_sets[20]: 342
Assign rand_sets[21]: 882  LLC: 2048
rand_sets[21]: 882
Assign rand_sets[22]: 15  LLC: 2048
rand_sets[22]: 15
Assign rand_sets[23]: 71  LLC: 2048
rand_sets[23]: 71
Assign rand_sets[24]: 1127  LLC: 2048
rand_sets[24]: 1127
Assign rand_sets[25]: 1382  LLC: 2048
rand_sets[25]: 1382
Assign rand_sets[26]: 647  LLC: 2048
rand_sets[26]: 647
Assign rand_sets[27]: 857  LLC: 2048
rand_sets[27]: 857
Assign rand_sets[28]: 1450  LLC: 2048
rand_sets[28]: 1450
Assign rand_sets[29]: 1160  LLC: 2048
rand_sets[29]: 1160
Assign rand_sets[30]: 1852  LLC: 2048
rand_sets[30]: 1852
Assign rand_sets[31]: 1881  LLC: 2048
rand_sets[31]: 1881
Assign rand_sets[32]: 1770  LLC: 2048
rand_sets[32]: 1770
Assign rand_sets[33]: 1622  LLC: 2048
rand_sets[33]: 1622
Assign rand_sets[34]: 275  LLC: 2048
rand_sets[34]: 275
Assign rand_sets[35]: 635  LLC: 2048
rand_sets[35]: 635
Assign rand_sets[36]: 466  LLC: 2048
rand_sets[36]: 466
Assign rand_sets[37]: 1413  LLC: 2048
rand_sets[37]: 1413
Assign rand_sets[38]: 417  LLC: 2048
rand_sets[38]: 417
Assign rand_sets[39]: 472  LLC: 2048
rand_sets[39]: 472
Assign rand_sets[40]: 1340  LLC: 2048
rand_sets[40]: 1340
Assign rand_sets[41]: 852  LLC: 2048
rand_sets[41]: 852
Assign rand_sets[42]: 1365  LLC: 2048
rand_sets[42]: 1365
Assign rand_sets[43]: 47  LLC: 2048
rand_sets[43]: 47
Assign rand_sets[44]: 823  LLC: 2048
rand_sets[44]: 823
Assign rand_sets[45]: 686  LLC: 2048
rand_sets[45]: 686
Assign rand_sets[46]: 1637  LLC: 2048
rand_sets[46]: 1637
Assign rand_sets[47]: 1115  LLC: 2048
rand_sets[47]: 1115
Assign rand_sets[48]: 986  LLC: 2048
rand_sets[48]: 986
Assign rand_sets[49]: 258  LLC: 2048
rand_sets[49]: 258
Assign rand_sets[50]: 633  LLC: 2048
rand_sets[50]: 633
Assign rand_sets[51]: 920  LLC: 2048
rand_sets[51]: 920
Assign rand_sets[52]: 204  LLC: 2048
rand_sets[52]: 204
Assign rand_sets[53]: 227  LLC: 2048
rand_sets[53]: 227
Assign rand_sets[54]: 1818  LLC: 2048
rand_sets[54]: 1818
Assign rand_sets[55]: 886  LLC: 2048
rand_sets[55]: 886
Assign rand_sets[56]: 1422  LLC: 2048
rand_sets[56]: 1422
Assign rand_sets[57]: 607  LLC: 2048
rand_sets[57]: 607
Assign rand_sets[58]: 217  LLC: 2048
rand_sets[58]: 217
Assign rand_sets[59]: 1945  LLC: 2048
rand_sets[59]: 1945
Assign rand_sets[60]: 143  LLC: 2048
rand_sets[60]: 143
Assign rand_sets[61]: 1311  LLC: 2048
rand_sets[61]: 1311
Assign rand_sets[62]: 319  LLC: 2048
rand_sets[62]: 319
Assign rand_sets[63]: 1846  LLC: 2048
rand_sets[63]: 1846
warmup_instructions 100000000
simulation_instructions 100000000
champsim_seed 222

num_cpus 1
cpu_freq 4000
dram_io_freq 2400
page_size 4096
block_size 64
max_read_per_cycle 8
max_fill_per_cycle 1
dram_channels 1
dram_ranks 1
dram_banks 8
dram_rows 65536
dram_columns 128
dram_row_size 8
dram_size 4096
dram_pages 1048576

fetch_width 6
decode_width 6
exec_width 4
lq_width 2
sq_width 2
retire_width 4
scheduler_size 128
branch_mispredict_penalty 20
rob_size 256
lq_size 72
sq_size 56
num_instr_destinations_sparc 4
num_instr_destinations 2
num_instr_sources 4

itlb_set 16
itlb_way 8
itlb_rq_size 16
itlb_wq_size 16
itlb_pq_size 0
itlb_mshr_size 8
itlb_latency 1

dtlb_set 16
dtlb_way 4
dtlb_rq_size 16
dtlb_wq_size 16
dtlb_pq_size 0
dtlb_mshr_size 8
dtlb_latency 1

stlb_set 128
stlb_way 12
stlb_rq_size 32
stlb_wq_size 32
stlb_pq_size 0
stlb_mshr_size 16
stlb_latency 8

l1i_size 32
l1i_set 64
l1i_way 8
l1i_rq_size 64
l1i_wq_size 64
l1i_pq_size 8
l1i_mshr_size 8
l1i_latency 1

l1d_size 32
l1d_set 64
l1d_way 8
l1d_rq_size 64
l1d_wq_size 64
l1d_pq_size 8
l1d_mshr_size 16
l1d_latency 4

l2c_size 512
l2c_set 1024
l2c_way 8
l2c_rq_size 32
l2c_wq_size 32
l2c_pq_size 16
l2c_mshr_size 32
l2c_latency 10

llc_size 2048
llc_set 2048
llc_way 16
llc_rq_size 32
llc_wq_size 32
llc_pq_size 32
llc_mshr_size 64
llc_latency 20

dram_channel_width 8
dram_wq_size 64
dram_rq_size 64
tRP 15
tRCD 15
tCAS 12.5
dram_dbus_turn_around_time 30
dram_write_high_wm 56
dram_write_low_wm 48
min_dram_writes_per_switch 16
dram_mtps 2400
dram_dbus_return_time 13


Heartbeat CPU  0 instructions:    1000000 cycles:     581510 heartbeat IPC: 1.71966 cumulative IPC: 1.71966 (Simulation time: 0 hr 0 min 1 sec) 
Heartbeat CPU  0 instructions:    2000003 cycles:    1163543 heartbeat IPC: 1.71812 cumulative IPC: 1.71889 (Simulation time: 0 hr 0 min 2 sec) 
Heartbeat CPU  0 instructions:    3000002 cycles:    1745575 heartbeat IPC: 1.71812 cumulative IPC: 1.71863 (Simulation time: 0 hr 0 min 2 sec) 
Heartbeat CPU  0 instructions:    4000000 cycles:    2327604 heartbeat IPC: 1.71812 cumulative IPC: 1.71851 (Simulation time: 0 hr 0 min 3 sec) 
Heartbeat CPU  0 instructions:    5000000 cycles:    2909636 heartbeat IPC: 1.71812 cumulative IPC: 1.71843 (Simulation time: 0 hr 0 min 4 sec) 
Heartbeat CPU  0 instructions:    6000000 cycles:    3491670 heartbeat IPC: 1.71811 cumulative IPC: 1.71838 (Simulation time: 0 hr 0 min 5 sec) 
Heartbeat CPU  0 instructions:    7000000 cycles:    4073701 heartbeat IPC: 1.71812 cumulative IPC: 1.71834 (Simulation time: 0 hr 0 min 6 sec) 
Heartbeat CPU  0 instructions:    8000000 cycles:    4655734 heartbeat IPC: 1.71812 cumulative IPC: 1.71831 (Simulation time: 0 hr 0 min 7 sec) 
Heartbeat CPU  0 instructions:    9000002 cycles:    5192889 heartbeat IPC: 1.86166 cumulative IPC: 1.73314 (Simulation time: 0 hr 0 min 8 sec) 
Heartbeat CPU  0 instructions:   10000002 cycles:    5715751 heartbeat IPC: 1.91255 cumulative IPC: 1.74955 (Simulation time: 0 hr 0 min 9 sec) 
Heartbeat CPU  0 instructions:   11000001 cycles:    6238636 heartbeat IPC: 1.91246 cumulative IPC: 1.76321 (Simulation time: 0 hr 0 min 11 sec) 
Heartbeat CPU  0 instructions:   12000000 cycles:    6761498 heartbeat IPC: 1.91255 cumulative IPC: 1.77475 (Simulation time: 0 hr 0 min 12 sec) 
Heartbeat CPU  0 instructions:   13000001 cycles:    7284407 heartbeat IPC: 1.91238 cumulative IPC: 1.78463 (Simulation time: 0 hr 0 min 14 sec) 
Heartbeat CPU  0 instructions:   14000001 cycles:    7807269 heartbeat IPC: 1.91255 cumulative IPC: 1.79320 (Simulation time: 0 hr 0 min 15 sec) 
Heartbeat CPU  0 instructions:   15000000 cycles:    8330154 heartbeat IPC: 1.91246 cumulative IPC: 1.80069 (Simulation time: 0 hr 0 min 16 sec) 
Heartbeat CPU  0 instructions:   16000000 cycles:    8853016 heartbeat IPC: 1.91255 cumulative IPC: 1.80729 (Simulation time: 0 hr 0 min 18 sec) 
Heartbeat CPU  0 instructions:   17000000 cycles:    9375925 heartbeat IPC: 1.91238 cumulative IPC: 1.81315 (Simulation time: 0 hr 0 min 19 sec) 
Heartbeat CPU  0 instructions:   18000000 cycles:    9898787 heartbeat IPC: 1.91255 cumulative IPC: 1.81840 (Simulation time: 0 hr 0 min 21 sec) 
Heartbeat CPU  0 instructions:   19000003 cycles:   10421672 heartbeat IPC: 1.91247 cumulative IPC: 1.82312 (Simulation time: 0 hr 0 min 22 sec) 
Heartbeat CPU  0 instructions:   20000000 cycles:   10944534 heartbeat IPC: 1.91254 cumulative IPC: 1.82740 (Simulation time: 0 hr 0 min 23 sec) 
Heartbeat CPU  0 instructions:   21000003 cycles:   11467443 heartbeat IPC: 1.91238 cumulative IPC: 1.83127 (Simulation time: 0 hr 0 min 25 sec) 
Heartbeat CPU  0 instructions:   22000003 cycles:   11990305 heartbeat IPC: 1.91255 cumulative IPC: 1.83482 (Simulation time: 0 hr 0 min 26 sec) 
Heartbeat CPU  0 instructions:   23000000 cycles:   12504821 heartbeat IPC: 1.94357 cumulative IPC: 1.83929 (Simulation time: 0 hr 0 min 28 sec) 
Heartbeat CPU  0 instructions:   24000000 cycles:   12925102 heartbeat IPC: 2.37936 cumulative IPC: 1.85685 (Simulation time: 0 hr 0 min 28 sec) 
Heartbeat CPU  0 instructions:   25000000 cycles:   13345378 heartbeat IPC: 2.37939 cumulative IPC: 1.87331 (Simulation time: 0 hr 0 min 29 sec) 
Heartbeat CPU  0 instructions:   26000000 cycles:   13765664 heartbeat IPC: 2.37933 cumulative IPC: 1.88876 (Simulation time: 0 hr 0 min 30 sec) 
Heartbeat CPU  0 instructions:   27000000 cycles:   14185975 heartbeat IPC: 2.37919 cumulative IPC: 1.90329 (Simulation time: 0 hr 0 min 31 sec) 
Heartbeat CPU  0 instructions:   28000000 cycles:   14606283 heartbeat IPC: 2.37921 cumulative IPC: 1.91698 (Simulation time: 0 hr 0 min 32 sec) 
Heartbeat CPU  0 instructions:   29000002 cycles:   15026561 heartbeat IPC: 2.37938 cumulative IPC: 1.92992 (Simulation time: 0 hr 0 min 32 sec) 
Heartbeat CPU  0 instructions:   30000003 cycles:   15446827 heartbeat IPC: 2.37945 cumulative IPC: 1.94215 (Simulation time: 0 hr 0 min 33 sec) 
Heartbeat CPU  0 instructions:   31000001 cycles:   15867121 heartbeat IPC: 2.37928 cumulative IPC: 1.95373 (Simulation time: 0 hr 0 min 34 sec) 
Heartbeat CPU  0 instructions:   32000000 cycles:   16287440 heartbeat IPC: 2.37914 cumulative IPC: 1.96470 (Simulation time: 0 hr 0 min 35 sec) 
Heartbeat CPU  0 instructions:   33000003 cycles:   16707714 heartbeat IPC: 2.37941 cumulative IPC: 1.97514 (Simulation time: 0 hr 0 min 35 sec) 
Heartbeat CPU  0 instructions:   34000000 cycles:   17127976 heartbeat IPC: 2.37946 cumulative IPC: 1.98506 (Simulation time: 0 hr 0 min 36 sec) 
Heartbeat CPU  0 instructions:   35000002 cycles:   17548265 heartbeat IPC: 2.37932 cumulative IPC: 1.99450 (Simulation time: 0 hr 0 min 37 sec) 
Heartbeat CPU  0 instructions:   36000000 cycles:   17968578 heartbeat IPC: 2.37917 cumulative IPC: 2.00350 (Simulation time: 0 hr 0 min 38 sec) 
Heartbeat CPU  0 instructions:   37000000 cycles:   18388894 heartbeat IPC: 2.37916 cumulative IPC: 2.01208 (Simulation time: 0 hr 0 min 38 sec) 
Heartbeat CPU  0 instructions:   38000002 cycles:   18809163 heartbeat IPC: 2.37943 cumulative IPC: 2.02029 (Simulation time: 0 hr 0 min 39 sec) 
Heartbeat CPU  0 instructions:   39000000 cycles:   19229446 heartbeat IPC: 2.37934 cumulative IPC: 2.02814 (Simulation time: 0 hr 0 min 40 sec) 
Heartbeat CPU  0 instructions:   40000000 cycles:   19649740 heartbeat IPC: 2.37929 cumulative IPC: 2.03565 (Simulation time: 0 hr 0 min 41 sec) 
Heartbeat CPU  0 instructions:   41000002 cycles:   20070076 heartbeat IPC: 2.37905 cumulative IPC: 2.04284 (Simulation time: 0 hr 0 min 42 sec) 
Heartbeat CPU  0 instructions:   42000003 cycles:   20490346 heartbeat IPC: 2.37943 cumulative IPC: 2.04975 (Simulation time: 0 hr 0 min 42 sec) 
Heartbeat CPU  0 instructions:   43000001 cycles:   20910616 heartbeat IPC: 2.37942 cumulative IPC: 2.05637 (Simulation time: 0 hr 0 min 43 sec) 
Heartbeat CPU  0 instructions:   44000000 cycles:   21330886 heartbeat IPC: 2.37942 cumulative IPC: 2.06274 (Simulation time: 0 hr 0 min 44 sec) 
Heartbeat CPU  0 instructions:   45000001 cycles:   21751189 heartbeat IPC: 2.37924 cumulative IPC: 2.06885 (Simulation time: 0 hr 0 min 45 sec) 
Heartbeat CPU  0 instructions:   46000001 cycles:   22171496 heartbeat IPC: 2.37921 cumulative IPC: 2.07474 (Simulation time: 0 hr 0 min 45 sec) 
Heartbeat CPU  0 instructions:   47000000 cycles:   22751003 heartbeat IPC: 1.72560 cumulative IPC: 2.06584 (Simulation time: 0 hr 0 min 46 sec) 
Heartbeat CPU  0 instructions:   48000000 cycles:   23333742 heartbeat IPC: 1.71603 cumulative IPC: 2.05711 (Simulation time: 0 hr 0 min 47 sec) 
Heartbeat CPU  0 instructions:   49000000 cycles:   23916486 heartbeat IPC: 1.71602 cumulative IPC: 2.04880 (Simulation time: 0 hr 0 min 48 sec) 
Heartbeat CPU  0 instructions:   50000002 cycles:   24499228 heartbeat IPC: 1.71603 cumulative IPC: 2.04088 (Simulation time: 0 hr 0 min 49 sec) 
Heartbeat CPU  0 instructions:   51000002 cycles:   25081969 heartbeat IPC: 1.71603 cumulative IPC: 2.03333 (Simulation time: 0 hr 0 min 50 sec) 
Heartbeat CPU  0 instructions:   52000000 cycles:   25664708 heartbeat IPC: 1.71603 cumulative IPC: 2.02613 (Simulation time: 0 hr 0 min 50 sec) 
Heartbeat CPU  0 instructions:   53000000 cycles:   26247449 heartbeat IPC: 1.71603 cumulative IPC: 2.01924 (Simulation time: 0 hr 0 min 51 sec) 
Heartbeat CPU  0 instructions:   54000003 cycles:   26830192 heartbeat IPC: 1.71603 cumulative IPC: 2.01266 (Simulation time: 0 hr 0 min 52 sec) 
Heartbeat CPU  0 instructions:   55000002 cycles:   27412934 heartbeat IPC: 1.71602 cumulative IPC: 2.00635 (Simulation time: 0 hr 0 min 53 sec) 
Heartbeat CPU  0 instructions:   56000000 cycles:   27995673 heartbeat IPC: 1.71603 cumulative IPC: 2.00031 (Simulation time: 0 hr 0 min 54 sec) 
Heartbeat CPU  0 instructions:   57000000 cycles:   28578415 heartbeat IPC: 1.71603 cumulative IPC: 1.99451 (Simulation time: 0 hr 0 min 55 sec) 
Heartbeat CPU  0 instructions:   58000000 cycles:   29161159 heartbeat IPC: 1.71602 cumulative IPC: 1.98895 (Simulation time: 0 hr 0 min 56 sec) 
Heartbeat CPU  0 instructions:   59000000 cycles:   29743900 heartbeat IPC: 1.71603 cumulative IPC: 1.98360 (Simulation time: 0 hr 0 min 56 sec) 
Heartbeat CPU  0 instructions:   60000000 cycles:   30326643 heartbeat IPC: 1.71602 cumulative IPC: 1.97846 (Simulation time: 0 hr 0 min 57 sec) 
Heartbeat CPU  0 instructions:   61000002 cycles:   30909383 heartbeat IPC: 1.71603 cumulative IPC: 1.97351 (Simulation time: 0 hr 0 min 58 sec) 
Heartbeat CPU  0 instructions:   62000002 cycles:   31492124 heartbeat IPC: 1.71603 cumulative IPC: 1.96875 (Simulation time: 0 hr 0 min 59 sec) 
Heartbeat CPU  0 instructions:   63000001 cycles:   32074866 heartbeat IPC: 1.71602 cumulative IPC: 1.96415 (Simulation time: 0 hr 1 min 0 sec) 
Heartbeat CPU  0 instructions:   64000000 cycles:   32657605 heartbeat IPC: 1.71603 cumulative IPC: 1.95973 (Simulation time: 0 hr 1 min 1 sec) 
Heartbeat CPU  0 instructions:   65000003 cycles:   33240348 heartbeat IPC: 1.71603 cumulative IPC: 1.95545 (Simulation time: 0 hr 1 min 2 sec) 
Heartbeat CPU  0 instructions:   66000002 cycles:   33823090 heartbeat IPC: 1.71602 cumulative IPC: 1.95133 (Simulation time: 0 hr 1 min 2 sec) 
Heartbeat CPU  0 instructions:   67000001 cycles:   34405829 heartbeat IPC: 1.71603 cumulative IPC: 1.94734 (Simulation time: 0 hr 1 min 3 sec) 
Heartbeat CPU  0 instructions:   68000000 cycles:   34988572 heartbeat IPC: 1.71602 cumulative IPC: 1.94349 (Simulation time: 0 hr 1 min 4 sec) 
Heartbeat CPU  0 instructions:   69000000 cycles:   35571317 heartbeat IPC: 1.71602 cumulative IPC: 1.93977 (Simulation time: 0 hr 1 min 5 sec) 
Heartbeat CPU  0 instructions:   70000000 cycles:   36097439 heartbeat IPC: 1.90070 cumulative IPC: 1.93920 (Simulation time: 0 hr 1 min 6 sec) 
Heartbeat CPU  0 instructions:   71000003 cycles:   36618089 heartbeat IPC: 1.92068 cumulative IPC: 1.93893 (Simulation time: 0 hr 1 min 8 sec) 
Heartbeat CPU  0 instructions:   72000000 cycles:   37138719 heartbeat IPC: 1.92074 cumulative IPC: 1.93868 (Simulation time: 0 hr 1 min 9 sec) 
Heartbeat CPU  0 instructions:   73000002 cycles:   37659396 heartbeat IPC: 1.92058 cumulative IPC: 1.93843 (Simulation time: 0 hr 1 min 11 sec) 
Heartbeat CPU  0 instructions:   74000002 cycles:   38180026 heartbeat IPC: 1.92075 cumulative IPC: 1.93819 (Simulation time: 0 hr 1 min 12 sec) 
Heartbeat CPU  0 instructions:   75000001 cycles:   38700680 heartbeat IPC: 1.92066 cumulative IPC: 1.93795 (Simulation time: 0 hr 1 min 13 sec) 
Heartbeat CPU  0 instructions:   76000000 cycles:   39221310 heartbeat IPC: 1.92075 cumulative IPC: 1.93772 (Simulation time: 0 hr 1 min 15 sec) 
Heartbeat CPU  0 instructions:   77000001 cycles:   39741987 heartbeat IPC: 1.92058 cumulative IPC: 1.93750 (Simulation time: 0 hr 1 min 16 sec) 
Heartbeat CPU  0 instructions:   78000001 cycles:   40262617 heartbeat IPC: 1.92075 cumulative IPC: 1.93728 (Simulation time: 0 hr 1 min 18 sec) 
Heartbeat CPU  0 instructions:   79000000 cycles:   40783271 heartbeat IPC: 1.92066 cumulative IPC: 1.93707 (Simulation time: 0 hr 1 min 19 sec) 
Heartbeat CPU  0 instructions:   80000000 cycles:   41303901 heartbeat IPC: 1.92075 cumulative IPC: 1.93686 (Simulation time: 0 hr 1 min 20 sec) 
Heartbeat CPU  0 instructions:   81000000 cycles:   41824578 heartbeat IPC: 1.92058 cumulative IPC: 1.93666 (Simulation time: 0 hr 1 min 22 sec) 
Heartbeat CPU  0 instructions:   82000000 cycles:   42345208 heartbeat IPC: 1.92075 cumulative IPC: 1.93646 (Simulation time: 0 hr 1 min 23 sec) 
Heartbeat CPU  0 instructions:   83000003 cycles:   42865860 heartbeat IPC: 1.92067 cumulative IPC: 1.93627 (Simulation time: 0 hr 1 min 25 sec) 
Heartbeat CPU  0 instructions:   84000000 cycles:   43363106 heartbeat IPC: 2.01107 cumulative IPC: 1.93713 (Simulation time: 0 hr 1 min 26 sec) 
Heartbeat CPU  0 instructions:   85000000 cycles:   43783389 heartbeat IPC: 2.37935 cumulative IPC: 1.94138 (Simulation time: 0 hr 1 min 27 sec) 
Heartbeat CPU  0 instructions:   86000001 cycles:   44203676 heartbeat IPC: 2.37933 cumulative IPC: 1.94554 (Simulation time: 0 hr 1 min 27 sec) 
Heartbeat CPU  0 instructions:   87000003 cycles:   44623977 heartbeat IPC: 2.37925 cumulative IPC: 1.94962 (Simulation time: 0 hr 1 min 28 sec) 
Heartbeat CPU  0 instructions:   88000000 cycles:   45044337 heartbeat IPC: 2.37891 cumulative IPC: 1.95363 (Simulation time: 0 hr 1 min 29 sec) 
Heartbeat CPU  0 instructions:   89000001 cycles:   45464617 heartbeat IPC: 2.37937 cumulative IPC: 1.95757 (Simulation time: 0 hr 1 min 30 sec) 
Heartbeat CPU  0 instructions:   90000001 cycles:   45884896 heartbeat IPC: 2.37937 cumulative IPC: 1.96143 (Simulation time: 0 hr 1 min 30 sec) 
Heartbeat CPU  0 instructions:   91000000 cycles:   46305176 heartbeat IPC: 2.37936 cumulative IPC: 1.96522 (Simulation time: 0 hr 1 min 31 sec) 
Heartbeat CPU  0 instructions:   92000000 cycles:   46725483 heartbeat IPC: 2.37921 cumulative IPC: 1.96895 (Simulation time: 0 hr 1 min 32 sec) 
Heartbeat CPU  0 instructions:   93000003 cycles:   47145816 heartbeat IPC: 2.37907 cumulative IPC: 1.97260 (Simulation time: 0 hr 1 min 33 sec) 
Heartbeat CPU  0 instructions:   94000000 cycles:   47566098 heartbeat IPC: 2.37935 cumulative IPC: 1.97620 (Simulation time: 0 hr 1 min 34 sec) 
Heartbeat CPU  0 instructions:   95000002 cycles:   47986381 heartbeat IPC: 2.37935 cumulative IPC: 1.97973 (Simulation time: 0 hr 1 min 34 sec) 
Heartbeat CPU  0 instructions:   96000000 cycles:   48406676 heartbeat IPC: 2.37928 cumulative IPC: 1.98320 (Simulation time: 0 hr 1 min 35 sec) 
Heartbeat CPU  0 instructions:   97000000 cycles:   48827032 heartbeat IPC: 2.37894 cumulative IPC: 1.98660 (Simulation time: 0 hr 1 min 36 sec) 
Heartbeat CPU  0 instructions:   98000000 cycles:   49247322 heartbeat IPC: 2.37931 cumulative IPC: 1.98996 (Simulation time: 0 hr 1 min 37 sec) 
Heartbeat CPU  0 instructions:   99000003 cycles:   49667617 heartbeat IPC: 2.37929 cumulative IPC: 1.99325 (Simulation time: 0 hr 1 min 37 sec) 
Heartbeat CPU  0 instructions:  100000000 cycles:   50087902 heartbeat IPC: 2.37933 cumulative IPC: 1.99649 (Simulation time: 0 hr 1 min 38 sec) 

Warmup complete CPU  0 instructions:  100000001 cycles:   50087904 (Simulation time: 0 hr 1 min 38 sec) 

Heartbeat CPU  0 instructions:  101000003 cycles:   51332536 heartbeat IPC: 0.80345 cumulative IPC: 0.80345 (Simulation time: 0 hr 1 min 40 sec) 
Heartbeat CPU  0 instructions:  102000003 cycles:   52557230 heartbeat IPC: 0.81653 cumulative IPC: 0.80994 (Simulation time: 0 hr 1 min 41 sec) 
Heartbeat CPU  0 instructions:  103000001 cycles:   53768609 heartbeat IPC: 0.82550 cumulative IPC: 0.81506 (Simulation time: 0 hr 1 min 42 sec) 
Heartbeat CPU  0 instructions:  104000000 cycles:   55019775 heartbeat IPC: 0.79925 cumulative IPC: 0.81105 (Simulation time: 0 hr 1 min 44 sec) 
Heartbeat CPU  0 instructions:  105000000 cycles:   56282660 heartbeat IPC: 0.79184 cumulative IPC: 0.80713 (Simulation time: 0 hr 1 min 45 sec) 
Heartbeat CPU  0 instructions:  106000002 cycles:   57445075 heartbeat IPC: 0.86028 cumulative IPC: 0.81553 (Simulation time: 0 hr 1 min 47 sec) 
Heartbeat CPU  0 instructions:  107000001 cycles:   58458524 heartbeat IPC: 0.98673 cumulative IPC: 0.83626 (Simulation time: 0 hr 1 min 48 sec) 
Heartbeat CPU  0 instructions:  108000000 cycles:   59625356 heartbeat IPC: 0.85702 cumulative IPC: 0.83880 (Simulation time: 0 hr 1 min 50 sec) 
Heartbeat CPU  0 instructions:  109000000 cycles:   60839959 heartbeat IPC: 0.82331 cumulative IPC: 0.83705 (Simulation time: 0 hr 1 min 51 sec) 
Heartbeat CPU  0 instructions:  110000001 cycles:   62084258 heartbeat IPC: 0.80367 cumulative IPC: 0.83359 (Simulation time: 0 hr 1 min 52 sec) 
Heartbeat CPU  0 instructions:  111000001 cycles:   63336041 heartbeat IPC: 0.79886 cumulative IPC: 0.83031 (Simulation time: 0 hr 1 min 54 sec) 
Heartbeat CPU  0 instructions:  112000000 cycles:   64594445 heartbeat IPC: 0.79466 cumulative IPC: 0.82721 (Simulation time: 0 hr 1 min 55 sec) 
Heartbeat CPU  0 instructions:  113000002 cycles:   65846527 heartbeat IPC: 0.79867 cumulative IPC: 0.82495 (Simulation time: 0 hr 1 min 57 sec) 
Heartbeat CPU  0 instructions:  114000002 cycles:   67103909 heartbeat IPC: 0.79530 cumulative IPC: 0.82275 (Simulation time: 0 hr 1 min 58 sec) 
Heartbeat CPU  0 instructions:  115000003 cycles:   68357917 heartbeat IPC: 0.79744 cumulative IPC: 0.82102 (Simulation time: 0 hr 1 min 59 sec) 
Heartbeat CPU  0 instructions:  116000000 cycles:   69621391 heartbeat IPC: 0.79147 cumulative IPC: 0.81911 (Simulation time: 0 hr 2 min 1 sec) 
Heartbeat CPU  0 instructions:  117000000 cycles:   70880320 heartbeat IPC: 0.79433 cumulative IPC: 0.81761 (Simulation time: 0 hr 2 min 2 sec) 
Heartbeat CPU  0 instructions:  118000000 cycles:   72156924 heartbeat IPC: 0.78333 cumulative IPC: 0.81562 (Simulation time: 0 hr 2 min 4 sec) 
Heartbeat CPU  0 instructions:  119000001 cycles:   73417335 heartbeat IPC: 0.79339 cumulative IPC: 0.81442 (Simulation time: 0 hr 2 min 5 sec) 
Heartbeat CPU  0 instructions:  120000000 cycles:   74693588 heartbeat IPC: 0.78354 cumulative IPC: 0.81282 (Simulation time: 0 hr 2 min 7 sec) 
Heartbeat CPU  0 instructions:  121000000 cycles:   75981203 heartbeat IPC: 0.77663 cumulative IPC: 0.81102 (Simulation time: 0 hr 2 min 8 sec) 
Heartbeat CPU  0 instructions:  122000002 cycles:   77256066 heartbeat IPC: 0.78440 cumulative IPC: 0.80977 (Simulation time: 0 hr 2 min 9 sec) 
Heartbeat CPU  0 instructions:  123000002 cycles:   78512458 heartbeat IPC: 0.79593 cumulative IPC: 0.80916 (Simulation time: 0 hr 2 min 11 sec) 
Heartbeat CPU  0 instructions:  124000000 cycles:   79795204 heartbeat IPC: 0.77958 cumulative IPC: 0.80788 (Simulation time: 0 hr 2 min 12 sec) 
Heartbeat CPU  0 instructions:  125000003 cycles:   81075517 heartbeat IPC: 0.78106 cumulative IPC: 0.80677 (Simulation time: 0 hr 2 min 14 sec) 
Heartbeat CPU  0 instructions:  126000000 cycles:   82352591 heartbeat IPC: 0.78304 cumulative IPC: 0.80583 (Simulation time: 0 hr 2 min 15 sec) 
Heartbeat CPU  0 instructions:  127000000 cycles:   83636135 heartbeat IPC: 0.77909 cumulative IPC: 0.80481 (Simulation time: 0 hr 2 min 17 sec) 
Heartbeat CPU  0 instructions:  128000000 cycles:   84913453 heartbeat IPC: 0.78289 cumulative IPC: 0.80401 (Simulation time: 0 hr 2 min 18 sec) 
Heartbeat CPU  0 instructions:  129000001 cycles:   86154042 heartbeat IPC: 0.80607 cumulative IPC: 0.80408 (Simulation time: 0 hr 2 min 19 sec) 
Heartbeat CPU  0 instructions:  130000001 cycles:   87279337 heartbeat IPC: 0.88866 cumulative IPC: 0.80664 (Simulation time: 0 hr 2 min 21 sec) 
Heartbeat CPU  0 instructions:  131000000 cycles:   89283152 heartbeat IPC: 0.49905 cumulative IPC: 0.79091 (Simulation time: 0 hr 2 min 23 sec) 
Heartbeat CPU  0 instructions:  132000000 cycles:   91794263 heartbeat IPC: 0.39823 cumulative IPC: 0.76727 (Simulation time: 0 hr 2 min 25 sec) 
Heartbeat CPU  0 instructions:  133000000 cycles:   94246334 heartbeat IPC: 0.40782 cumulative IPC: 0.74731 (Simulation time: 0 hr 2 min 27 sec) 
Heartbeat CPU  0 instructions:  134000000 cycles:   96684181 heartbeat IPC: 0.41020 cumulative IPC: 0.72967 (Simulation time: 0 hr 2 min 29 sec) 
Heartbeat CPU  0 instructions:  135000000 cycles:   99128947 heartbeat IPC: 0.40904 cumulative IPC: 0.71369 (Simulation time: 0 hr 2 min 31 sec) 
Heartbeat CPU  0 instructions:  136000000 cycles:  101581221 heartbeat IPC: 0.40778 cumulative IPC: 0.69912 (Simulation time: 0 hr 2 min 34 sec) 
Heartbeat CPU  0 instructions:  137000000 cycles:  104034056 heartbeat IPC: 0.40769 cumulative IPC: 0.68587 (Simulation time: 0 hr 2 min 36 sec) 
Heartbeat CPU  0 instructions:  138000000 cycles:  106475329 heartbeat IPC: 0.40962 cumulative IPC: 0.67391 (Simulation time: 0 hr 2 min 38 sec) 
Heartbeat CPU  0 instructions:  139000000 cycles:  108913998 heartbeat IPC: 0.41006 cumulative IPC: 0.66297 (Simulation time: 0 hr 2 min 40 sec) 
Heartbeat CPU  0 instructions:  140000000 cycles:  111355599 heartbeat IPC: 0.40957 cumulative IPC: 0.65287 (Simulation time: 0 hr 2 min 42 sec) 
Heartbeat CPU  0 instructions:  141000000 cycles:  113787754 heartbeat IPC: 0.41116 cumulative IPC: 0.64364 (Simulation time: 0 hr 2 min 45 sec) 
Heartbeat CPU  0 instructions:  142000000 cycles:  116222375 heartbeat IPC: 0.41074 cumulative IPC: 0.63507 (Simulation time: 0 hr 2 min 47 sec) 
Heartbeat CPU  0 instructions:  143000000 cycles:  118656640 heartbeat IPC: 0.41080 cumulative IPC: 0.62711 (Simulation time: 0 hr 2 min 49 sec) 
Heartbeat CPU  0 instructions:  144000000 cycles:  121082109 heartbeat IPC: 0.41229 cumulative IPC: 0.61977 (Simulation time: 0 hr 2 min 51 sec) 
Heartbeat CPU  0 instructions:  145000002 cycles:  123331677 heartbeat IPC: 0.44453 cumulative IPC: 0.61439 (Simulation time: 0 hr 2 min 53 sec) 
Heartbeat CPU  0 instructions:  146000000 cycles:  124705132 heartbeat IPC: 0.72809 cumulative IPC: 0.61648 (Simulation time: 0 hr 2 min 55 sec) 
Heartbeat CPU  0 instructions:  147000000 cycles:  125981850 heartbeat IPC: 0.78326 cumulative IPC: 0.61929 (Simulation time: 0 hr 2 min 56 sec) 
Heartbeat CPU  0 instructions:  148000000 cycles:  127258911 heartbeat IPC: 0.78305 cumulative IPC: 0.62200 (Simulation time: 0 hr 2 min 58 sec) 
Heartbeat CPU  0 instructions:  149000000 cycles:  128520664 heartbeat IPC: 0.79255 cumulative IPC: 0.62474 (Simulation time: 0 hr 2 min 59 sec) 
Heartbeat CPU  0 instructions:  150000001 cycles:  129789171 heartbeat IPC: 0.78833 cumulative IPC: 0.62734 (Simulation time: 0 hr 3 min 1 sec) 
Heartbeat CPU  0 instructions:  151000001 cycles:  131034001 heartbeat IPC: 0.80332 cumulative IPC: 0.63005 (Simulation time: 0 hr 3 min 2 sec) 
Heartbeat CPU  0 instructions:  152000000 cycles:  132302451 heartbeat IPC: 0.78836 cumulative IPC: 0.63249 (Simulation time: 0 hr 3 min 4 sec) 
Heartbeat CPU  0 instructions:  153000001 cycles:  133560331 heartbeat IPC: 0.79499 cumulative IPC: 0.63494 (Simulation time: 0 hr 3 min 5 sec) 
Heartbeat CPU  0 instructions:  154000003 cycles:  134808422 heartbeat IPC: 0.80123 cumulative IPC: 0.63739 (Simulation time: 0 hr 3 min 7 sec) 
Heartbeat CPU  0 instructions:  155000001 cycles:  136081084 heartbeat IPC: 0.78575 cumulative IPC: 0.63959 (Simulation time: 0 hr 3 min 8 sec) 
Heartbeat CPU  0 instructions:  156000000 cycles:  137357667 heartbeat IPC: 0.78334 cumulative IPC: 0.64169 (Simulation time: 0 hr 3 min 10 sec) 
Heartbeat CPU  0 instructions:  157000002 cycles:  138606340 heartbeat IPC: 0.80085 cumulative IPC: 0.64393 (Simulation time: 0 hr 3 min 11 sec) 
Heartbeat CPU  0 instructions:  158000000 cycles:  139877011 heartbeat IPC: 0.78698 cumulative IPC: 0.64596 (Simulation time: 0 hr 3 min 13 sec) 
Heartbeat CPU  0 instructions:  159000002 cycles:  141164366 heartbeat IPC: 0.77679 cumulative IPC: 0.64781 (Simulation time: 0 hr 3 min 14 sec) 
Heartbeat CPU  0 instructions:  160000000 cycles:  142444562 heartbeat IPC: 0.78113 cumulative IPC: 0.64966 (Simulation time: 0 hr 3 min 16 sec) 
Heartbeat CPU  0 instructions:  161000000 cycles:  143688500 heartbeat IPC: 0.80390 cumulative IPC: 0.65171 (Simulation time: 0 hr 3 min 17 sec) 
Heartbeat CPU  0 instructions:  162000002 cycles:  144942486 heartbeat IPC: 0.79746 cumulative IPC: 0.65363 (Simulation time: 0 hr 3 min 19 sec) 
Heartbeat CPU  0 instructions:  163000000 cycles:  146170722 heartbeat IPC: 0.81417 cumulative IPC: 0.65568 (Simulation time: 0 hr 3 min 20 sec) 
Heartbeat CPU  0 instructions:  164000000 cycles:  147403110 heartbeat IPC: 0.81143 cumulative IPC: 0.65766 (Simulation time: 0 hr 3 min 22 sec) 
Heartbeat CPU  0 instructions:  165000001 cycles:  148650420 heartbeat IPC: 0.80173 cumulative IPC: 0.65948 (Simulation time: 0 hr 3 min 23 sec) 
Heartbeat CPU  0 instructions:  166000003 cycles:  149905308 heartbeat IPC: 0.79689 cumulative IPC: 0.66121 (Simulation time: 0 hr 3 min 25 sec) 
Heartbeat CPU  0 instructions:  167000001 cycles:  151067646 heartbeat IPC: 0.86033 cumulative IPC: 0.66350 (Simulation time: 0 hr 3 min 26 sec) 
Heartbeat CPU  0 instructions:  168000000 cycles:  152092787 heartbeat IPC: 0.97547 cumulative IPC: 0.66663 (Simulation time: 0 hr 3 min 27 sec) 
Heartbeat CPU  0 instructions:  169000000 cycles:  153307955 heartbeat IPC: 0.82293 cumulative IPC: 0.66847 (Simulation time: 0 hr 3 min 29 sec) 
Heartbeat CPU  0 instructions:  170000003 cycles:  154587458 heartbeat IPC: 0.78156 cumulative IPC: 0.66986 (Simulation time: 0 hr 3 min 30 sec) 
Heartbeat CPU  0 instructions:  171000001 cycles:  155897528 heartbeat IPC: 0.76332 cumulative IPC: 0.67102 (Simulation time: 0 hr 3 min 32 sec) 
Heartbeat CPU  0 instructions:  172000000 cycles:  157202715 heartbeat IPC: 0.76617 cumulative IPC: 0.67218 (Simulation time: 0 hr 3 min 33 sec) 
Heartbeat CPU  0 instructions:  173000001 cycles:  158501576 heartbeat IPC: 0.76991 cumulative IPC: 0.67335 (Simulation time: 0 hr 3 min 35 sec) 
Heartbeat CPU  0 instructions:  174000000 cycles:  159802171 heartbeat IPC: 0.76888 cumulative IPC: 0.67448 (Simulation time: 0 hr 3 min 36 sec) 
Heartbeat CPU  0 instructions:  175000002 cycles:  161119990 heartbeat IPC: 0.75883 cumulative IPC: 0.67548 (Simulation time: 0 hr 3 min 38 sec) 
Heartbeat CPU  0 instructions:  176000000 cycles:  162421808 heartbeat IPC: 0.76815 cumulative IPC: 0.67655 (Simulation time: 0 hr 3 min 39 sec) 
Heartbeat CPU  0 instructions:  177000002 cycles:  163741765 heartbeat IPC: 0.75760 cumulative IPC: 0.67750 (Simulation time: 0 hr 3 min 41 sec) 
Heartbeat CPU  0 instructions:  178000000 cycles:  165066520 heartbeat IPC: 0.75486 cumulative IPC: 0.67839 (Simulation time: 0 hr 3 min 43 sec) 
Heartbeat CPU  0 instructions:  179000003 cycles:  166387906 heartbeat IPC: 0.75678 cumulative IPC: 0.67928 (Simulation time: 0 hr 3 min 44 sec) 
Heartbeat CPU  0 instructions:  180000000 cycles:  167704449 heartbeat IPC: 0.75956 cumulative IPC: 0.68018 (Simulation time: 0 hr 3 min 46 sec) 
Heartbeat CPU  0 instructions:  181000000 cycles:  169033738 heartbeat IPC: 0.75228 cumulative IPC: 0.68098 (Simulation time: 0 hr 3 min 47 sec) 
Heartbeat CPU  0 instructions:  182000001 cycles:  170346992 heartbeat IPC: 0.76147 cumulative IPC: 0.68186 (Simulation time: 0 hr 3 min 49 sec) 
Heartbeat CPU  0 instructions:  183000000 cycles:  171672442 heartbeat IPC: 0.75446 cumulative IPC: 0.68265 (Simulation time: 0 hr 3 min 50 sec) 
Heartbeat CPU  0 instructions:  184000000 cycles:  172987113 heartbeat IPC: 0.76065 cumulative IPC: 0.68349 (Simulation time: 0 hr 3 min 52 sec) 
Heartbeat CPU  0 instructions:  185000001 cycles:  174308413 heartbeat IPC: 0.75683 cumulative IPC: 0.68427 (Simulation time: 0 hr 3 min 53 sec) 
Heartbeat CPU  0 instructions:  186000002 cycles:  175626078 heartbeat IPC: 0.75892 cumulative IPC: 0.68505 (Simulation time: 0 hr 3 min 55 sec) 
Heartbeat CPU  0 instructions:  187000000 cycles:  176952218 heartbeat IPC: 0.75407 cumulative IPC: 0.68577 (Simulation time: 0 hr 3 min 56 sec) 
Heartbeat CPU  0 instructions:  188000000 cycles:  178281542 heartbeat IPC: 0.75226 cumulative IPC: 0.68646 (Simulation time: 0 hr 3 min 58 sec) 
Heartbeat CPU  0 instructions:  189000001 cycles:  179609219 heartbeat IPC: 0.75320 cumulative IPC: 0.68715 (Simulation time: 0 hr 3 min 59 sec) 
Heartbeat CPU  0 instructions:  190000000 cycles:  180887132 heartbeat IPC: 0.78253 cumulative IPC: 0.68808 (Simulation time: 0 hr 4 min 1 sec) 
Heartbeat CPU  0 instructions:  191000000 cycles:  182040554 heartbeat IPC: 0.86699 cumulative IPC: 0.68964 (Simulation time: 0 hr 4 min 2 sec) 
Heartbeat CPU  0 instructions:  192000000 cycles:  184160911 heartbeat IPC: 0.47162 cumulative IPC: 0.68619 (Simulation time: 0 hr 4 min 4 sec) 
Heartbeat CPU  0 instructions:  193000000 cycles:  186768636 heartbeat IPC: 0.38348 cumulative IPC: 0.68042 (Simulation time: 0 hr 4 min 6 sec) 
Heartbeat CPU  0 instructions:  194000000 cycles:  189318964 heartbeat IPC: 0.39211 cumulative IPC: 0.67514 (Simulation time: 0 hr 4 min 9 sec) 
Heartbeat CPU  0 instructions:  195000002 cycles:  191827593 heartbeat IPC: 0.39862 cumulative IPC: 0.67024 (Simulation time: 0 hr 4 min 11 sec) 
Heartbeat CPU  0 instructions:  196000000 cycles:  194352436 heartbeat IPC: 0.39606 cumulative IPC: 0.66544 (Simulation time: 0 hr 4 min 13 sec) 
Heartbeat CPU  0 instructions:  197000000 cycles:  196888026 heartbeat IPC: 0.39439 cumulative IPC: 0.66076 (Simulation time: 0 hr 4 min 15 sec) 
Heartbeat CPU  0 instructions:  198000000 cycles:  199420016 heartbeat IPC: 0.39495 cumulative IPC: 0.65626 (Simulation time: 0 hr 4 min 17 sec) 
Heartbeat CPU  0 instructions:  199000000 cycles:  201938980 heartbeat IPC: 0.39699 cumulative IPC: 0.65195 (Simulation time: 0 hr 4 min 19 sec) 
Heartbeat CPU  0 instructions:  200000000 cycles:  204458574 heartbeat IPC: 0.39689 cumulative IPC: 0.64779 (Simulation time: 0 hr 4 min 22 sec) 
Finished CPU 0 instructions: 100000000 cycles: 154370683 cumulative IPC: 0.64779 (Simulation time: 0 hr 4 min 22 sec) 

ChampSim completed all CPUs

[ROI Statistics]
Core_0_instructions 100000000
Core_0_cycles 154370683
Core_0_IPC 0.64779

Core_0_branch_prediction_accuracy 99.58952
Core_0_branch_MPKI 0.70683
Core_0_average_ROB_occupancy_at_mispredict 218.78766

Core_0_L1D_total_access 21599189
Core_0_L1D_total_hit 19022951
Core_0_L1D_total_miss 2576238
Core_0_L1D_loads 10571024
Core_0_L1D_load_hit 8708643
Core_0_L1D_load_miss 1862381
Core_0_L1D_RFOs 3492976
Core_0_L1D_RFO_hit 3492956
Core_0_L1D_RFO_miss 20
Core_0_L1D_prefetches 7535189
Core_0_L1D_prefetch_hit 6821352
Core_0_L1D_prefetch_miss 713837
Core_0_L1D_writebacks 0
Core_0_L1D_writeback_hit 0
Core_0_L1D_writeback_miss 0
Core_0_L1D_prefetch_requested 41723571
Core_0_L1D_prefetch_issued 41461464
Core_0_L1D_prefetch_useful 3136631
Core_0_L1D_prefetch_useless 30
Core_0_L1D_prefetch_late 1721238
Core_0_L1D_average_miss_latency 83747822.84390

Core_0_L1I_total_access 32008564
Core_0_L1I_total_hit 32008563
Core_0_L1I_total_miss 1
Core_0_L1I_loads 32008564
Core_0_L1I_load_hit 32008563
Core_0_L1I_load_miss 1
Core_0_L1I_RFOs 0
Core_0_L1I_RFO_hit 0
Core_0_L1I_RFO_miss 0
Core_0_L1I_prefetches 0
Core_0_L1I_prefetch_hit 0
Core_0_L1I_prefetch_miss 0
Core_0_L1I_writebacks 0
Core_0_L1I_writeback_hit 0
Core_0_L1I_writeback_miss 0
Core_0_L1I_prefetch_requested 0
Core_0_L1I_prefetch_issued 0
Core_0_L1I_prefetch_useful 0
Core_0_L1I_prefetch_useless 0
Core_0_L1I_prefetch_late 0
Core_0_L1I_average_miss_latency 211.00000

Core_0_L2C_total_access 4115079
Core_0_L2C_total_hit 1538834
Core_0_L2C_total_miss 2576245
Core_0_L2C_loads 165797
Core_0_L2C_load_hit 13527
Core_0_L2C_load_miss 152270
Core_0_L2C_RFOs 20
Core_0_L2C_RFO_hit 0
Core_0_L2C_RFO_miss 20
Core_0_L2C_prefetches 2999116
Core_0_L2C_prefetch_hit 575161
Core_0_L2C_prefetch_miss 2423955
Core_0_L2C_writebacks 950146
Core_0_L2C_writeback_hit 950146
Core_0_L2C_writeback_miss 0
Core_0_L2C_prefetch_requested 9797805
Core_0_L2C_prefetch_issued 9797805
Core_0_L2C_prefetch_useful 169253
Core_0_L2C_prefetch_useless 4850744
Core_0_L2C_prefetch_late 74142
Core_0_L2C_average_miss_latency 186.83704

Core_0_LLC_total_access 3518949
Core_0_LLC_total_hit 115297
Core_0_LLC_total_miss 3403652
Core_0_LLC_loads 78128
Core_0_LLC_load_hit 2023
Core_0_LLC_load_miss 76105
Core_0_LLC_RFOs 20
Core_0_LLC_RFO_hit 8
Core_0_LLC_RFO_miss 12
Core_0_LLC_prefetches 2498098
Core_0_LLC_prefetch_hit 69094
Core_0_LLC_prefetch_miss 2429004
Core_0_LLC_writebacks 942703
Core_0_LLC_writeback_hit 44172
Core_0_LLC_writeback_miss 898531
Core_0_LLC_prefetch_requested 0
Core_0_LLC_prefetch_issued 0
Core_0_LLC_prefetch_useful 180
Core_0_LLC_prefetch_useless 5029584
Core_0_LLC_prefetch_late 0
Core_0_LLC_average_miss_latency 118.80504

Core_0_major_page_fault 0
Core_0_minor_page_fault 8199

CPU 0 L1D next line prefetcher final stats
CPU 0 L2C PC-based stride prefetcher final stats
Channel_0_RQ_row_buffer_hit 1425703
Channel_0_RQ_row_buffer_miss 1079419
Channel_0_WQ_row_buffer_hit 423259
Channel_0_WQ_row_buffer_miss 507144
Channel_0_WQ_full 0
Channel_0_dbus_congested 2258984

avg_congested_cycle 10
