*************************************************
   ChampSim Multicore Out-of-Order Simulator
   Last compiled: Dec 21 2023 20:34:18
*************************************************

trace_0 ./test_trace/462.libquantum-714B.champsimtrace.xz
CPU 0 L1D next line prefetcher
Initialize SRRIP state
warmup_instructions 100000000
simulation_instructions 100000000
champsim_seed 222

num_cpus 1
cpu_freq 4000
dram_io_freq 2400
page_size 4096
block_size 64
max_read_per_cycle 8
max_fill_per_cycle 1
dram_channels 1
dram_ranks 1
dram_banks 8
dram_rows 65536
dram_columns 128
dram_row_size 8
dram_size 4096
dram_pages 1048576

fetch_width 6
decode_width 6
exec_width 4
lq_width 2
sq_width 2
retire_width 4
scheduler_size 128
branch_mispredict_penalty 20
rob_size 256
lq_size 72
sq_size 56
num_instr_destinations_sparc 4
num_instr_destinations 2
num_instr_sources 4

itlb_set 16
itlb_way 8
itlb_rq_size 16
itlb_wq_size 16
itlb_pq_size 0
itlb_mshr_size 8
itlb_latency 1

dtlb_set 16
dtlb_way 4
dtlb_rq_size 16
dtlb_wq_size 16
dtlb_pq_size 0
dtlb_mshr_size 8
dtlb_latency 1

stlb_set 128
stlb_way 12
stlb_rq_size 32
stlb_wq_size 32
stlb_pq_size 0
stlb_mshr_size 16
stlb_latency 8

l1i_size 32
l1i_set 64
l1i_way 8
l1i_rq_size 64
l1i_wq_size 64
l1i_pq_size 8
l1i_mshr_size 8
l1i_latency 1

l1d_size 32
l1d_set 64
l1d_way 8
l1d_rq_size 64
l1d_wq_size 64
l1d_pq_size 8
l1d_mshr_size 16
l1d_latency 4

l2c_size 512
l2c_set 1024
l2c_way 8
l2c_rq_size 32
l2c_wq_size 32
l2c_pq_size 16
l2c_mshr_size 32
l2c_latency 10

llc_size 2048
llc_set 2048
llc_way 16
llc_rq_size 32
llc_wq_size 32
llc_pq_size 32
llc_mshr_size 64
llc_latency 20

dram_channel_width 8
dram_wq_size 64
dram_rq_size 64
tRP 15
tRCD 15
tCAS 12.5
dram_dbus_turn_around_time 30
dram_write_high_wm 56
dram_write_low_wm 48
min_dram_writes_per_switch 16
dram_mtps 2400
dram_dbus_return_time 13


Heartbeat CPU  0 instructions:    1000000 cycles:     581510 heartbeat IPC: 1.71966 cumulative IPC: 1.71966 (Simulation time: 0 hr 0 min 1 sec) 
Heartbeat CPU  0 instructions:    2000003 cycles:    1163543 heartbeat IPC: 1.71812 cumulative IPC: 1.71889 (Simulation time: 0 hr 0 min 2 sec) 
Heartbeat CPU  0 instructions:    3000002 cycles:    1745575 heartbeat IPC: 1.71812 cumulative IPC: 1.71863 (Simulation time: 0 hr 0 min 3 sec) 
Heartbeat CPU  0 instructions:    4000000 cycles:    2327604 heartbeat IPC: 1.71812 cumulative IPC: 1.71851 (Simulation time: 0 hr 0 min 4 sec) 
Heartbeat CPU  0 instructions:    5000000 cycles:    2909636 heartbeat IPC: 1.71812 cumulative IPC: 1.71843 (Simulation time: 0 hr 0 min 5 sec) 
Heartbeat CPU  0 instructions:    6000000 cycles:    3491670 heartbeat IPC: 1.71811 cumulative IPC: 1.71838 (Simulation time: 0 hr 0 min 5 sec) 
Heartbeat CPU  0 instructions:    7000000 cycles:    4073701 heartbeat IPC: 1.71812 cumulative IPC: 1.71834 (Simulation time: 0 hr 0 min 6 sec) 
Heartbeat CPU  0 instructions:    8000000 cycles:    4655734 heartbeat IPC: 1.71812 cumulative IPC: 1.71831 (Simulation time: 0 hr 0 min 7 sec) 
Heartbeat CPU  0 instructions:    9000002 cycles:    5191185 heartbeat IPC: 1.86759 cumulative IPC: 1.73371 (Simulation time: 0 hr 0 min 8 sec) 
Heartbeat CPU  0 instructions:   10000002 cycles:    5711815 heartbeat IPC: 1.92075 cumulative IPC: 1.75076 (Simulation time: 0 hr 0 min 10 sec) 
Heartbeat CPU  0 instructions:   11000001 cycles:    6232468 heartbeat IPC: 1.92066 cumulative IPC: 1.76495 (Simulation time: 0 hr 0 min 11 sec) 
Heartbeat CPU  0 instructions:   12000000 cycles:    6753098 heartbeat IPC: 1.92075 cumulative IPC: 1.77696 (Simulation time: 0 hr 0 min 13 sec) 
Heartbeat CPU  0 instructions:   13000001 cycles:    7273775 heartbeat IPC: 1.92058 cumulative IPC: 1.78724 (Simulation time: 0 hr 0 min 14 sec) 
Heartbeat CPU  0 instructions:   14000001 cycles:    7794405 heartbeat IPC: 1.92075 cumulative IPC: 1.79616 (Simulation time: 0 hr 0 min 15 sec) 
Heartbeat CPU  0 instructions:   15000000 cycles:    8315058 heartbeat IPC: 1.92066 cumulative IPC: 1.80396 (Simulation time: 0 hr 0 min 17 sec) 
Heartbeat CPU  0 instructions:   16000000 cycles:    8835688 heartbeat IPC: 1.92075 cumulative IPC: 1.81084 (Simulation time: 0 hr 0 min 18 sec) 
Heartbeat CPU  0 instructions:   17000000 cycles:    9356365 heartbeat IPC: 1.92058 cumulative IPC: 1.81694 (Simulation time: 0 hr 0 min 19 sec) 
Heartbeat CPU  0 instructions:   18000000 cycles:    9876995 heartbeat IPC: 1.92075 cumulative IPC: 1.82242 (Simulation time: 0 hr 0 min 21 sec) 
Heartbeat CPU  0 instructions:   19000003 cycles:   10397646 heartbeat IPC: 1.92068 cumulative IPC: 1.82734 (Simulation time: 0 hr 0 min 22 sec) 
Heartbeat CPU  0 instructions:   20000000 cycles:   10918276 heartbeat IPC: 1.92074 cumulative IPC: 1.83179 (Simulation time: 0 hr 0 min 24 sec) 
Heartbeat CPU  0 instructions:   21000003 cycles:   11438953 heartbeat IPC: 1.92058 cumulative IPC: 1.83583 (Simulation time: 0 hr 0 min 25 sec) 
Heartbeat CPU  0 instructions:   22000003 cycles:   11959583 heartbeat IPC: 1.92075 cumulative IPC: 1.83953 (Simulation time: 0 hr 0 min 26 sec) 
Heartbeat CPU  0 instructions:   23000000 cycles:   12472053 heartbeat IPC: 1.95133 cumulative IPC: 1.84412 (Simulation time: 0 hr 0 min 28 sec) 
Heartbeat CPU  0 instructions:   24000000 cycles:   12892334 heartbeat IPC: 2.37936 cumulative IPC: 1.86157 (Simulation time: 0 hr 0 min 28 sec) 
Heartbeat CPU  0 instructions:   25000000 cycles:   13312610 heartbeat IPC: 2.37939 cumulative IPC: 1.87792 (Simulation time: 0 hr 0 min 29 sec) 
Heartbeat CPU  0 instructions:   26000000 cycles:   13732896 heartbeat IPC: 2.37933 cumulative IPC: 1.89326 (Simulation time: 0 hr 0 min 30 sec) 
Heartbeat CPU  0 instructions:   27000000 cycles:   14153207 heartbeat IPC: 2.37919 cumulative IPC: 1.90769 (Simulation time: 0 hr 0 min 30 sec) 
Heartbeat CPU  0 instructions:   28000000 cycles:   14573515 heartbeat IPC: 2.37921 cumulative IPC: 1.92129 (Simulation time: 0 hr 0 min 31 sec) 
Heartbeat CPU  0 instructions:   29000002 cycles:   14993793 heartbeat IPC: 2.37938 cumulative IPC: 1.93413 (Simulation time: 0 hr 0 min 32 sec) 
Heartbeat CPU  0 instructions:   30000003 cycles:   15414059 heartbeat IPC: 2.37945 cumulative IPC: 1.94628 (Simulation time: 0 hr 0 min 33 sec) 
Heartbeat CPU  0 instructions:   31000001 cycles:   15834353 heartbeat IPC: 2.37928 cumulative IPC: 1.95777 (Simulation time: 0 hr 0 min 33 sec) 
Heartbeat CPU  0 instructions:   32000000 cycles:   16254672 heartbeat IPC: 2.37914 cumulative IPC: 1.96866 (Simulation time: 0 hr 0 min 34 sec) 
Heartbeat CPU  0 instructions:   33000003 cycles:   16674946 heartbeat IPC: 2.37941 cumulative IPC: 1.97902 (Simulation time: 0 hr 0 min 35 sec) 
Heartbeat CPU  0 instructions:   34000000 cycles:   17095208 heartbeat IPC: 2.37946 cumulative IPC: 1.98886 (Simulation time: 0 hr 0 min 36 sec) 
Heartbeat CPU  0 instructions:   35000002 cycles:   17515497 heartbeat IPC: 2.37932 cumulative IPC: 1.99823 (Simulation time: 0 hr 0 min 36 sec) 
Heartbeat CPU  0 instructions:   36000000 cycles:   17935810 heartbeat IPC: 2.37917 cumulative IPC: 2.00716 (Simulation time: 0 hr 0 min 37 sec) 
Heartbeat CPU  0 instructions:   37000000 cycles:   18356126 heartbeat IPC: 2.37916 cumulative IPC: 2.01568 (Simulation time: 0 hr 0 min 38 sec) 
Heartbeat CPU  0 instructions:   38000002 cycles:   18776395 heartbeat IPC: 2.37943 cumulative IPC: 2.02382 (Simulation time: 0 hr 0 min 38 sec) 
Heartbeat CPU  0 instructions:   39000000 cycles:   19196678 heartbeat IPC: 2.37934 cumulative IPC: 2.03160 (Simulation time: 0 hr 0 min 39 sec) 
Heartbeat CPU  0 instructions:   40000000 cycles:   19616972 heartbeat IPC: 2.37929 cumulative IPC: 2.03905 (Simulation time: 0 hr 0 min 40 sec) 
Heartbeat CPU  0 instructions:   41000002 cycles:   20037308 heartbeat IPC: 2.37905 cumulative IPC: 2.04618 (Simulation time: 0 hr 0 min 41 sec) 
Heartbeat CPU  0 instructions:   42000003 cycles:   20457578 heartbeat IPC: 2.37943 cumulative IPC: 2.05303 (Simulation time: 0 hr 0 min 41 sec) 
Heartbeat CPU  0 instructions:   43000001 cycles:   20877848 heartbeat IPC: 2.37942 cumulative IPC: 2.05960 (Simulation time: 0 hr 0 min 42 sec) 
Heartbeat CPU  0 instructions:   44000000 cycles:   21298118 heartbeat IPC: 2.37942 cumulative IPC: 2.06591 (Simulation time: 0 hr 0 min 43 sec) 
Heartbeat CPU  0 instructions:   45000001 cycles:   21718421 heartbeat IPC: 2.37924 cumulative IPC: 2.07197 (Simulation time: 0 hr 0 min 44 sec) 
Heartbeat CPU  0 instructions:   46000001 cycles:   22138728 heartbeat IPC: 2.37921 cumulative IPC: 2.07781 (Simulation time: 0 hr 0 min 44 sec) 
Heartbeat CPU  0 instructions:   47000000 cycles:   22718235 heartbeat IPC: 1.72560 cumulative IPC: 2.06882 (Simulation time: 0 hr 0 min 45 sec) 
Heartbeat CPU  0 instructions:   48000000 cycles:   23300974 heartbeat IPC: 1.71603 cumulative IPC: 2.06000 (Simulation time: 0 hr 0 min 46 sec) 
Heartbeat CPU  0 instructions:   49000000 cycles:   23883718 heartbeat IPC: 1.71602 cumulative IPC: 2.05161 (Simulation time: 0 hr 0 min 47 sec) 
Heartbeat CPU  0 instructions:   50000002 cycles:   24466460 heartbeat IPC: 1.71603 cumulative IPC: 2.04361 (Simulation time: 0 hr 0 min 48 sec) 
Heartbeat CPU  0 instructions:   51000002 cycles:   25049201 heartbeat IPC: 1.71603 cumulative IPC: 2.03599 (Simulation time: 0 hr 0 min 48 sec) 
Heartbeat CPU  0 instructions:   52000000 cycles:   25631940 heartbeat IPC: 1.71603 cumulative IPC: 2.02872 (Simulation time: 0 hr 0 min 49 sec) 
Heartbeat CPU  0 instructions:   53000000 cycles:   26214681 heartbeat IPC: 1.71603 cumulative IPC: 2.02177 (Simulation time: 0 hr 0 min 50 sec) 
Heartbeat CPU  0 instructions:   54000003 cycles:   26797424 heartbeat IPC: 1.71603 cumulative IPC: 2.01512 (Simulation time: 0 hr 0 min 51 sec) 
Heartbeat CPU  0 instructions:   55000002 cycles:   27380166 heartbeat IPC: 1.71602 cumulative IPC: 2.00875 (Simulation time: 0 hr 0 min 52 sec) 
Heartbeat CPU  0 instructions:   56000000 cycles:   27962905 heartbeat IPC: 1.71603 cumulative IPC: 2.00265 (Simulation time: 0 hr 0 min 52 sec) 
Heartbeat CPU  0 instructions:   57000000 cycles:   28545647 heartbeat IPC: 1.71603 cumulative IPC: 1.99680 (Simulation time: 0 hr 0 min 53 sec) 
Heartbeat CPU  0 instructions:   58000000 cycles:   29128391 heartbeat IPC: 1.71602 cumulative IPC: 1.99118 (Simulation time: 0 hr 0 min 54 sec) 
Heartbeat CPU  0 instructions:   59000000 cycles:   29711132 heartbeat IPC: 1.71603 cumulative IPC: 1.98579 (Simulation time: 0 hr 0 min 55 sec) 
Heartbeat CPU  0 instructions:   60000000 cycles:   30293875 heartbeat IPC: 1.71602 cumulative IPC: 1.98060 (Simulation time: 0 hr 0 min 56 sec) 
Heartbeat CPU  0 instructions:   61000002 cycles:   30876615 heartbeat IPC: 1.71603 cumulative IPC: 1.97561 (Simulation time: 0 hr 0 min 57 sec) 
Heartbeat CPU  0 instructions:   62000002 cycles:   31459356 heartbeat IPC: 1.71603 cumulative IPC: 1.97080 (Simulation time: 0 hr 0 min 57 sec) 
Heartbeat CPU  0 instructions:   63000001 cycles:   32042098 heartbeat IPC: 1.71602 cumulative IPC: 1.96616 (Simulation time: 0 hr 0 min 58 sec) 
Heartbeat CPU  0 instructions:   64000000 cycles:   32624837 heartbeat IPC: 1.71603 cumulative IPC: 1.96170 (Simulation time: 0 hr 0 min 59 sec) 
Heartbeat CPU  0 instructions:   65000003 cycles:   33207580 heartbeat IPC: 1.71603 cumulative IPC: 1.95738 (Simulation time: 0 hr 1 min 0 sec) 
Heartbeat CPU  0 instructions:   66000002 cycles:   33790322 heartbeat IPC: 1.71602 cumulative IPC: 1.95322 (Simulation time: 0 hr 1 min 1 sec) 
Heartbeat CPU  0 instructions:   67000001 cycles:   34373061 heartbeat IPC: 1.71603 cumulative IPC: 1.94920 (Simulation time: 0 hr 1 min 1 sec) 
Heartbeat CPU  0 instructions:   68000000 cycles:   34955804 heartbeat IPC: 1.71602 cumulative IPC: 1.94531 (Simulation time: 0 hr 1 min 2 sec) 
Heartbeat CPU  0 instructions:   69000000 cycles:   35538549 heartbeat IPC: 1.71602 cumulative IPC: 1.94155 (Simulation time: 0 hr 1 min 3 sec) 
Heartbeat CPU  0 instructions:   70000000 cycles:   36060597 heartbeat IPC: 1.91553 cumulative IPC: 1.94118 (Simulation time: 0 hr 1 min 4 sec) 
Heartbeat CPU  0 instructions:   71000003 cycles:   36576783 heartbeat IPC: 1.93729 cumulative IPC: 1.94112 (Simulation time: 0 hr 1 min 6 sec) 
Heartbeat CPU  0 instructions:   72000000 cycles:   37092949 heartbeat IPC: 1.93736 cumulative IPC: 1.94107 (Simulation time: 0 hr 1 min 7 sec) 
Heartbeat CPU  0 instructions:   73000002 cycles:   37609162 heartbeat IPC: 1.93719 cumulative IPC: 1.94102 (Simulation time: 0 hr 1 min 8 sec) 
Heartbeat CPU  0 instructions:   74000002 cycles:   38125328 heartbeat IPC: 1.93736 cumulative IPC: 1.94097 (Simulation time: 0 hr 1 min 10 sec) 
Heartbeat CPU  0 instructions:   75000001 cycles:   38641516 heartbeat IPC: 1.93728 cumulative IPC: 1.94092 (Simulation time: 0 hr 1 min 11 sec) 
Heartbeat CPU  0 instructions:   76000000 cycles:   39157682 heartbeat IPC: 1.93736 cumulative IPC: 1.94087 (Simulation time: 0 hr 1 min 13 sec) 
Heartbeat CPU  0 instructions:   77000001 cycles:   39673895 heartbeat IPC: 1.93719 cumulative IPC: 1.94082 (Simulation time: 0 hr 1 min 14 sec) 
Heartbeat CPU  0 instructions:   78000001 cycles:   40190061 heartbeat IPC: 1.93736 cumulative IPC: 1.94078 (Simulation time: 0 hr 1 min 15 sec) 
Heartbeat CPU  0 instructions:   79000000 cycles:   40706248 heartbeat IPC: 1.93728 cumulative IPC: 1.94073 (Simulation time: 0 hr 1 min 17 sec) 
Heartbeat CPU  0 instructions:   80000000 cycles:   41222414 heartbeat IPC: 1.93736 cumulative IPC: 1.94069 (Simulation time: 0 hr 1 min 18 sec) 
Heartbeat CPU  0 instructions:   81000000 cycles:   41738627 heartbeat IPC: 1.93718 cumulative IPC: 1.94065 (Simulation time: 0 hr 1 min 19 sec) 
Heartbeat CPU  0 instructions:   82000000 cycles:   42254793 heartbeat IPC: 1.93736 cumulative IPC: 1.94061 (Simulation time: 0 hr 1 min 21 sec) 
Heartbeat CPU  0 instructions:   83000003 cycles:   42770980 heartbeat IPC: 1.93729 cumulative IPC: 1.94057 (Simulation time: 0 hr 1 min 22 sec) 
Heartbeat CPU  0 instructions:   84000000 cycles:   43264803 heartbeat IPC: 2.02501 cumulative IPC: 1.94153 (Simulation time: 0 hr 1 min 23 sec) 
Heartbeat CPU  0 instructions:   85000000 cycles:   43685086 heartbeat IPC: 2.37935 cumulative IPC: 1.94574 (Simulation time: 0 hr 1 min 24 sec) 
Heartbeat CPU  0 instructions:   86000001 cycles:   44105373 heartbeat IPC: 2.37933 cumulative IPC: 1.94988 (Simulation time: 0 hr 1 min 25 sec) 
Heartbeat CPU  0 instructions:   87000003 cycles:   44525674 heartbeat IPC: 2.37925 cumulative IPC: 1.95393 (Simulation time: 0 hr 1 min 26 sec) 
Heartbeat CPU  0 instructions:   88000000 cycles:   44946034 heartbeat IPC: 2.37891 cumulative IPC: 1.95790 (Simulation time: 0 hr 1 min 26 sec) 
Heartbeat CPU  0 instructions:   89000001 cycles:   45366314 heartbeat IPC: 2.37937 cumulative IPC: 1.96181 (Simulation time: 0 hr 1 min 27 sec) 
Heartbeat CPU  0 instructions:   90000001 cycles:   45786593 heartbeat IPC: 2.37937 cumulative IPC: 1.96564 (Simulation time: 0 hr 1 min 28 sec) 
Heartbeat CPU  0 instructions:   91000000 cycles:   46206873 heartbeat IPC: 2.37936 cumulative IPC: 1.96940 (Simulation time: 0 hr 1 min 28 sec) 
Heartbeat CPU  0 instructions:   92000000 cycles:   46627180 heartbeat IPC: 2.37921 cumulative IPC: 1.97310 (Simulation time: 0 hr 1 min 29 sec) 
Heartbeat CPU  0 instructions:   93000003 cycles:   47047513 heartbeat IPC: 2.37907 cumulative IPC: 1.97673 (Simulation time: 0 hr 1 min 30 sec) 
Heartbeat CPU  0 instructions:   94000000 cycles:   47467795 heartbeat IPC: 2.37935 cumulative IPC: 1.98029 (Simulation time: 0 hr 1 min 31 sec) 
Heartbeat CPU  0 instructions:   95000002 cycles:   47888078 heartbeat IPC: 2.37935 cumulative IPC: 1.98379 (Simulation time: 0 hr 1 min 31 sec) 
Heartbeat CPU  0 instructions:   96000000 cycles:   48308373 heartbeat IPC: 2.37928 cumulative IPC: 1.98723 (Simulation time: 0 hr 1 min 32 sec) 
Heartbeat CPU  0 instructions:   97000000 cycles:   48728729 heartbeat IPC: 2.37894 cumulative IPC: 1.99061 (Simulation time: 0 hr 1 min 33 sec) 
Heartbeat CPU  0 instructions:   98000000 cycles:   49149019 heartbeat IPC: 2.37931 cumulative IPC: 1.99394 (Simulation time: 0 hr 1 min 34 sec) 
Heartbeat CPU  0 instructions:   99000003 cycles:   49569314 heartbeat IPC: 2.37929 cumulative IPC: 1.99720 (Simulation time: 0 hr 1 min 34 sec) 
Heartbeat CPU  0 instructions:  100000000 cycles:   49989599 heartbeat IPC: 2.37933 cumulative IPC: 2.00042 (Simulation time: 0 hr 1 min 35 sec) 

Warmup complete CPU  0 instructions:  100000001 cycles:   49989601 (Simulation time: 0 hr 1 min 35 sec) 

Heartbeat CPU  0 instructions:  101000003 cycles:   51384416 heartbeat IPC: 0.71694 cumulative IPC: 0.71694 (Simulation time: 0 hr 1 min 36 sec) 
Heartbeat CPU  0 instructions:  102000003 cycles:   52784604 heartbeat IPC: 0.71419 cumulative IPC: 0.71556 (Simulation time: 0 hr 1 min 38 sec) 
Heartbeat CPU  0 instructions:  103000001 cycles:   54174948 heartbeat IPC: 0.71925 cumulative IPC: 0.71679 (Simulation time: 0 hr 1 min 39 sec) 
Heartbeat CPU  0 instructions:  104000000 cycles:   55571172 heartbeat IPC: 0.71622 cumulative IPC: 0.71664 (Simulation time: 0 hr 1 min 41 sec) 
Heartbeat CPU  0 instructions:  105000000 cycles:   56966906 heartbeat IPC: 0.71647 cumulative IPC: 0.71661 (Simulation time: 0 hr 1 min 43 sec) 
Heartbeat CPU  0 instructions:  106000002 cycles:   58362904 heartbeat IPC: 0.71633 cumulative IPC: 0.71656 (Simulation time: 0 hr 1 min 44 sec) 
Heartbeat CPU  0 instructions:  107000001 cycles:   59770100 heartbeat IPC: 0.71063 cumulative IPC: 0.71571 (Simulation time: 0 hr 1 min 46 sec) 
Heartbeat CPU  0 instructions:  108000000 cycles:   61171637 heartbeat IPC: 0.71350 cumulative IPC: 0.71543 (Simulation time: 0 hr 1 min 47 sec) 
Heartbeat CPU  0 instructions:  109000000 cycles:   62651128 heartbeat IPC: 0.67591 cumulative IPC: 0.71081 (Simulation time: 0 hr 1 min 49 sec) 
Heartbeat CPU  0 instructions:  110000001 cycles:   64142208 heartbeat IPC: 0.67066 cumulative IPC: 0.70658 (Simulation time: 0 hr 1 min 50 sec) 
Heartbeat CPU  0 instructions:  111000001 cycles:   65667076 heartbeat IPC: 0.65579 cumulative IPC: 0.70164 (Simulation time: 0 hr 1 min 52 sec) 
Heartbeat CPU  0 instructions:  112000000 cycles:   67162615 heartbeat IPC: 0.66865 cumulative IPC: 0.69877 (Simulation time: 0 hr 1 min 53 sec) 
Heartbeat CPU  0 instructions:  113000002 cycles:   68672034 heartbeat IPC: 0.66251 cumulative IPC: 0.69584 (Simulation time: 0 hr 1 min 55 sec) 
Heartbeat CPU  0 instructions:  114000002 cycles:   70188132 heartbeat IPC: 0.65959 cumulative IPC: 0.69312 (Simulation time: 0 hr 1 min 56 sec) 
Heartbeat CPU  0 instructions:  115000003 cycles:   71665743 heartbeat IPC: 0.67677 cumulative IPC: 0.69201 (Simulation time: 0 hr 1 min 58 sec) 
Heartbeat CPU  0 instructions:  116000000 cycles:   73196536 heartbeat IPC: 0.65325 cumulative IPC: 0.68945 (Simulation time: 0 hr 1 min 59 sec) 
Heartbeat CPU  0 instructions:  117000000 cycles:   74701347 heartbeat IPC: 0.66454 cumulative IPC: 0.68793 (Simulation time: 0 hr 2 min 0 sec) 
Heartbeat CPU  0 instructions:  118000000 cycles:   76195595 heartbeat IPC: 0.66923 cumulative IPC: 0.68687 (Simulation time: 0 hr 2 min 2 sec) 
Heartbeat CPU  0 instructions:  119000001 cycles:   77717868 heartbeat IPC: 0.65691 cumulative IPC: 0.68522 (Simulation time: 0 hr 2 min 4 sec) 
Heartbeat CPU  0 instructions:  120000000 cycles:   79208969 heartbeat IPC: 0.67064 cumulative IPC: 0.68448 (Simulation time: 0 hr 2 min 5 sec) 
Heartbeat CPU  0 instructions:  121000000 cycles:   80717755 heartbeat IPC: 0.66278 cumulative IPC: 0.68341 (Simulation time: 0 hr 2 min 7 sec) 
Heartbeat CPU  0 instructions:  122000002 cycles:   82238090 heartbeat IPC: 0.65775 cumulative IPC: 0.68220 (Simulation time: 0 hr 2 min 8 sec) 
Heartbeat CPU  0 instructions:  123000002 cycles:   83728472 heartbeat IPC: 0.67097 cumulative IPC: 0.68171 (Simulation time: 0 hr 2 min 10 sec) 
Heartbeat CPU  0 instructions:  124000000 cycles:   85251982 heartbeat IPC: 0.65638 cumulative IPC: 0.68061 (Simulation time: 0 hr 2 min 11 sec) 
Heartbeat CPU  0 instructions:  125000003 cycles:   86748903 heartbeat IPC: 0.66804 cumulative IPC: 0.68010 (Simulation time: 0 hr 2 min 13 sec) 
Heartbeat CPU  0 instructions:  126000000 cycles:   88247292 heartbeat IPC: 0.66738 cumulative IPC: 0.67960 (Simulation time: 0 hr 2 min 14 sec) 
Heartbeat CPU  0 instructions:  127000000 cycles:   89764673 heartbeat IPC: 0.65903 cumulative IPC: 0.67882 (Simulation time: 0 hr 2 min 15 sec) 
Heartbeat CPU  0 instructions:  128000000 cycles:   91249260 heartbeat IPC: 0.67359 cumulative IPC: 0.67863 (Simulation time: 0 hr 2 min 17 sec) 
Heartbeat CPU  0 instructions:  129000001 cycles:   92769893 heartbeat IPC: 0.65762 cumulative IPC: 0.67788 (Simulation time: 0 hr 2 min 18 sec) 
Heartbeat CPU  0 instructions:  130000001 cycles:   94280128 heartbeat IPC: 0.66215 cumulative IPC: 0.67735 (Simulation time: 0 hr 2 min 20 sec) 
Heartbeat CPU  0 instructions:  131000000 cycles:   96177433 heartbeat IPC: 0.52706 cumulative IPC: 0.67117 (Simulation time: 0 hr 2 min 22 sec) 
Heartbeat CPU  0 instructions:  132000000 cycles:   99142412 heartbeat IPC: 0.33727 cumulative IPC: 0.65103 (Simulation time: 0 hr 2 min 24 sec) 
Heartbeat CPU  0 instructions:  133000000 cycles:  102101808 heartbeat IPC: 0.33791 cumulative IPC: 0.63325 (Simulation time: 0 hr 2 min 27 sec) 
Heartbeat CPU  0 instructions:  134000000 cycles:  105068819 heartbeat IPC: 0.33704 cumulative IPC: 0.61729 (Simulation time: 0 hr 2 min 29 sec) 
Heartbeat CPU  0 instructions:  135000000 cycles:  108027646 heartbeat IPC: 0.33797 cumulative IPC: 0.60305 (Simulation time: 0 hr 2 min 31 sec) 
Heartbeat CPU  0 instructions:  136000000 cycles:  110982347 heartbeat IPC: 0.33844 cumulative IPC: 0.59023 (Simulation time: 0 hr 2 min 34 sec) 
Heartbeat CPU  0 instructions:  137000000 cycles:  113953197 heartbeat IPC: 0.33660 cumulative IPC: 0.57845 (Simulation time: 0 hr 2 min 36 sec) 
Heartbeat CPU  0 instructions:  138000000 cycles:  116914070 heartbeat IPC: 0.33774 cumulative IPC: 0.56780 (Simulation time: 0 hr 2 min 38 sec) 
Heartbeat CPU  0 instructions:  139000000 cycles:  119871633 heartbeat IPC: 0.33812 cumulative IPC: 0.55808 (Simulation time: 0 hr 2 min 41 sec) 
Heartbeat CPU  0 instructions:  140000000 cycles:  122834862 heartbeat IPC: 0.33747 cumulative IPC: 0.54911 (Simulation time: 0 hr 2 min 43 sec) 
Heartbeat CPU  0 instructions:  141000000 cycles:  125799084 heartbeat IPC: 0.33736 cumulative IPC: 0.54083 (Simulation time: 0 hr 2 min 45 sec) 
Heartbeat CPU  0 instructions:  142000000 cycles:  128760639 heartbeat IPC: 0.33766 cumulative IPC: 0.53319 (Simulation time: 0 hr 2 min 47 sec) 
Heartbeat CPU  0 instructions:  143000000 cycles:  131720592 heartbeat IPC: 0.33784 cumulative IPC: 0.52612 (Simulation time: 0 hr 2 min 50 sec) 
Heartbeat CPU  0 instructions:  144000000 cycles:  134676894 heartbeat IPC: 0.33826 cumulative IPC: 0.51956 (Simulation time: 0 hr 2 min 52 sec) 
Heartbeat CPU  0 instructions:  145000002 cycles:  137450000 heartbeat IPC: 0.36061 cumulative IPC: 0.51452 (Simulation time: 0 hr 2 min 54 sec) 
Heartbeat CPU  0 instructions:  146000000 cycles:  139678325 heartbeat IPC: 0.44877 cumulative IPC: 0.51288 (Simulation time: 0 hr 2 min 56 sec) 
Heartbeat CPU  0 instructions:  147000000 cycles:  141590772 heartbeat IPC: 0.52289 cumulative IPC: 0.51309 (Simulation time: 0 hr 2 min 58 sec) 
Heartbeat CPU  0 instructions:  148000000 cycles:  143594663 heartbeat IPC: 0.49903 cumulative IPC: 0.51279 (Simulation time: 0 hr 3 min 0 sec) 
Heartbeat CPU  0 instructions:  149000000 cycles:  145457316 heartbeat IPC: 0.53687 cumulative IPC: 0.51326 (Simulation time: 0 hr 3 min 1 sec) 
Heartbeat CPU  0 instructions:  150000001 cycles:  146979827 heartbeat IPC: 0.65681 cumulative IPC: 0.51552 (Simulation time: 0 hr 3 min 3 sec) 
Heartbeat CPU  0 instructions:  151000001 cycles:  148373437 heartbeat IPC: 0.71756 cumulative IPC: 0.51838 (Simulation time: 0 hr 3 min 4 sec) 
Heartbeat CPU  0 instructions:  152000000 cycles:  149770384 heartbeat IPC: 0.71585 cumulative IPC: 0.52114 (Simulation time: 0 hr 3 min 6 sec) 
Heartbeat CPU  0 instructions:  153000001 cycles:  151168068 heartbeat IPC: 0.71547 cumulative IPC: 0.52383 (Simulation time: 0 hr 3 min 7 sec) 
Heartbeat CPU  0 instructions:  154000003 cycles:  152556418 heartbeat IPC: 0.72028 cumulative IPC: 0.52649 (Simulation time: 0 hr 3 min 9 sec) 
Heartbeat CPU  0 instructions:  155000001 cycles:  153963039 heartbeat IPC: 0.71092 cumulative IPC: 0.52898 (Simulation time: 0 hr 3 min 10 sec) 
Heartbeat CPU  0 instructions:  156000000 cycles:  155356632 heartbeat IPC: 0.71757 cumulative IPC: 0.53148 (Simulation time: 0 hr 3 min 12 sec) 
Heartbeat CPU  0 instructions:  157000002 cycles:  156751995 heartbeat IPC: 0.71666 cumulative IPC: 0.53390 (Simulation time: 0 hr 3 min 13 sec) 
Heartbeat CPU  0 instructions:  158000000 cycles:  158152558 heartbeat IPC: 0.71400 cumulative IPC: 0.53623 (Simulation time: 0 hr 3 min 15 sec) 
Heartbeat CPU  0 instructions:  159000002 cycles:  159547035 heartbeat IPC: 0.71712 cumulative IPC: 0.53853 (Simulation time: 0 hr 3 min 16 sec) 
Heartbeat CPU  0 instructions:  160000000 cycles:  160943567 heartbeat IPC: 0.71606 cumulative IPC: 0.54076 (Simulation time: 0 hr 3 min 18 sec) 
Heartbeat CPU  0 instructions:  161000000 cycles:  162341939 heartbeat IPC: 0.71512 cumulative IPC: 0.54293 (Simulation time: 0 hr 3 min 19 sec) 
Heartbeat CPU  0 instructions:  162000002 cycles:  163733927 heartbeat IPC: 0.71840 cumulative IPC: 0.54508 (Simulation time: 0 hr 3 min 21 sec) 
Heartbeat CPU  0 instructions:  163000000 cycles:  165132801 heartbeat IPC: 0.71486 cumulative IPC: 0.54714 (Simulation time: 0 hr 3 min 22 sec) 
Heartbeat CPU  0 instructions:  164000000 cycles:  166528923 heartbeat IPC: 0.71627 cumulative IPC: 0.54917 (Simulation time: 0 hr 3 min 24 sec) 
Heartbeat CPU  0 instructions:  165000001 cycles:  167924807 heartbeat IPC: 0.71639 cumulative IPC: 0.55115 (Simulation time: 0 hr 3 min 25 sec) 
Heartbeat CPU  0 instructions:  166000003 cycles:  169326789 heartbeat IPC: 0.71328 cumulative IPC: 0.55305 (Simulation time: 0 hr 3 min 27 sec) 
Heartbeat CPU  0 instructions:  167000001 cycles:  170718850 heartbeat IPC: 0.71836 cumulative IPC: 0.55496 (Simulation time: 0 hr 3 min 28 sec) 
Heartbeat CPU  0 instructions:  168000000 cycles:  172134555 heartbeat IPC: 0.70636 cumulative IPC: 0.55672 (Simulation time: 0 hr 3 min 30 sec) 
Heartbeat CPU  0 instructions:  169000000 cycles:  173536695 heartbeat IPC: 0.71320 cumulative IPC: 0.55849 (Simulation time: 0 hr 3 min 31 sec) 
Heartbeat CPU  0 instructions:  170000003 cycles:  175070511 heartbeat IPC: 0.65197 cumulative IPC: 0.55964 (Simulation time: 0 hr 3 min 33 sec) 
Heartbeat CPU  0 instructions:  171000001 cycles:  176649673 heartbeat IPC: 0.63325 cumulative IPC: 0.56056 (Simulation time: 0 hr 3 min 35 sec) 
Heartbeat CPU  0 instructions:  172000000 cycles:  178262336 heartbeat IPC: 0.62009 cumulative IPC: 0.56130 (Simulation time: 0 hr 3 min 36 sec) 
Heartbeat CPU  0 instructions:  173000001 cycles:  179849135 heartbeat IPC: 0.63020 cumulative IPC: 0.56215 (Simulation time: 0 hr 3 min 38 sec) 
Heartbeat CPU  0 instructions:  174000000 cycles:  181457874 heartbeat IPC: 0.62160 cumulative IPC: 0.56287 (Simulation time: 0 hr 3 min 39 sec) 
Heartbeat CPU  0 instructions:  175000002 cycles:  183057319 heartbeat IPC: 0.62522 cumulative IPC: 0.56362 (Simulation time: 0 hr 3 min 41 sec) 
Heartbeat CPU  0 instructions:  176000000 cycles:  184628734 heartbeat IPC: 0.63637 cumulative IPC: 0.56447 (Simulation time: 0 hr 3 min 43 sec) 
Heartbeat CPU  0 instructions:  177000002 cycles:  186243950 heartbeat IPC: 0.61911 cumulative IPC: 0.56512 (Simulation time: 0 hr 3 min 44 sec) 
Heartbeat CPU  0 instructions:  178000000 cycles:  187834473 heartbeat IPC: 0.62872 cumulative IPC: 0.56585 (Simulation time: 0 hr 3 min 46 sec) 
Heartbeat CPU  0 instructions:  179000003 cycles:  189426216 heartbeat IPC: 0.62824 cumulative IPC: 0.56657 (Simulation time: 0 hr 3 min 47 sec) 
Heartbeat CPU  0 instructions:  180000000 cycles:  191038524 heartbeat IPC: 0.62023 cumulative IPC: 0.56718 (Simulation time: 0 hr 3 min 49 sec) 
Heartbeat CPU  0 instructions:  181000000 cycles:  192624821 heartbeat IPC: 0.63040 cumulative IPC: 0.56788 (Simulation time: 0 hr 3 min 51 sec) 
Heartbeat CPU  0 instructions:  182000001 cycles:  194221736 heartbeat IPC: 0.62621 cumulative IPC: 0.56853 (Simulation time: 0 hr 3 min 52 sec) 
Heartbeat CPU  0 instructions:  183000000 cycles:  195817084 heartbeat IPC: 0.62682 cumulative IPC: 0.56917 (Simulation time: 0 hr 3 min 54 sec) 
Heartbeat CPU  0 instructions:  184000000 cycles:  197401632 heartbeat IPC: 0.63109 cumulative IPC: 0.56983 (Simulation time: 0 hr 3 min 56 sec) 
Heartbeat CPU  0 instructions:  185000001 cycles:  199018575 heartbeat IPC: 0.61845 cumulative IPC: 0.57036 (Simulation time: 0 hr 3 min 57 sec) 
Heartbeat CPU  0 instructions:  186000002 cycles:  200604658 heartbeat IPC: 0.63048 cumulative IPC: 0.57099 (Simulation time: 0 hr 3 min 59 sec) 
Heartbeat CPU  0 instructions:  187000000 cycles:  202191554 heartbeat IPC: 0.63016 cumulative IPC: 0.57161 (Simulation time: 0 hr 4 min 0 sec) 
Heartbeat CPU  0 instructions:  188000000 cycles:  203800884 heartbeat IPC: 0.62138 cumulative IPC: 0.57213 (Simulation time: 0 hr 4 min 2 sec) 
Heartbeat CPU  0 instructions:  189000001 cycles:  205378843 heartbeat IPC: 0.63373 cumulative IPC: 0.57276 (Simulation time: 0 hr 4 min 3 sec) 
Heartbeat CPU  0 instructions:  190000000 cycles:  206978771 heartbeat IPC: 0.62503 cumulative IPC: 0.57329 (Simulation time: 0 hr 4 min 5 sec) 
Heartbeat CPU  0 instructions:  191000000 cycles:  208600246 heartbeat IPC: 0.61672 cumulative IPC: 0.57373 (Simulation time: 0 hr 4 min 7 sec) 
Heartbeat CPU  0 instructions:  192000000 cycles:  210574231 heartbeat IPC: 0.50659 cumulative IPC: 0.57291 (Simulation time: 0 hr 4 min 8 sec) 
Heartbeat CPU  0 instructions:  193000000 cycles:  213495208 heartbeat IPC: 0.34235 cumulative IPC: 0.56879 (Simulation time: 0 hr 4 min 11 sec) 
Heartbeat CPU  0 instructions:  194000000 cycles:  216433083 heartbeat IPC: 0.34038 cumulative IPC: 0.56476 (Simulation time: 0 hr 4 min 13 sec) 
Heartbeat CPU  0 instructions:  195000000 cycles:  219367658 heartbeat IPC: 0.34076 cumulative IPC: 0.56088 (Simulation time: 0 hr 4 min 15 sec) 
Heartbeat CPU  0 instructions:  196000000 cycles:  222300875 heartbeat IPC: 0.34092 cumulative IPC: 0.55713 (Simulation time: 0 hr 4 min 18 sec) 
Heartbeat CPU  0 instructions:  197000000 cycles:  225232529 heartbeat IPC: 0.34110 cumulative IPC: 0.55352 (Simulation time: 0 hr 4 min 20 sec) 
Heartbeat CPU  0 instructions:  198000000 cycles:  228171123 heartbeat IPC: 0.34030 cumulative IPC: 0.55000 (Simulation time: 0 hr 4 min 22 sec) 
Heartbeat CPU  0 instructions:  199000000 cycles:  231106977 heartbeat IPC: 0.34062 cumulative IPC: 0.54661 (Simulation time: 0 hr 4 min 24 sec) 
Heartbeat CPU  0 instructions:  200000000 cycles:  234041219 heartbeat IPC: 0.34080 cumulative IPC: 0.54333 (Simulation time: 0 hr 4 min 27 sec) 
Finished CPU 0 instructions: 100000000 cycles: 184051631 cumulative IPC: 0.54333 (Simulation time: 0 hr 4 min 27 sec) 

ChampSim completed all CPUs

[ROI Statistics]
Core_0_instructions 100000000
Core_0_cycles 184051631
Core_0_IPC 0.54333

Core_0_branch_prediction_accuracy 99.58952
Core_0_branch_MPKI 0.70683
Core_0_average_ROB_occupancy_at_mispredict 218.77167

Core_0_L1D_total_access 20883370
Core_0_L1D_total_hit 18307132
Core_0_L1D_total_miss 2576238
Core_0_L1D_loads 10268948
Core_0_L1D_load_hit 8121431
Core_0_L1D_load_miss 2147517
Core_0_L1D_RFOs 3492975
Core_0_L1D_RFO_hit 3492955
Core_0_L1D_RFO_miss 20
Core_0_L1D_prefetches 7121447
Core_0_L1D_prefetch_hit 6692746
Core_0_L1D_prefetch_miss 428701
Core_0_L1D_writebacks 0
Core_0_L1D_writeback_hit 0
Core_0_L1D_writeback_miss 0
Core_0_L1D_prefetch_requested 41892910
Core_0_L1D_prefetch_issued 41624629
Core_0_L1D_prefetch_useful 2745067
Core_0_L1D_prefetch_useless 30
Core_0_L1D_prefetch_late 2098548
Core_0_L1D_average_miss_latency 107631265.56518

Core_0_L1I_total_access 32465923
Core_0_L1I_total_hit 32465922
Core_0_L1I_total_miss 1
Core_0_L1I_loads 32465923
Core_0_L1I_load_hit 32465922
Core_0_L1I_load_miss 1
Core_0_L1I_RFOs 0
Core_0_L1I_RFO_hit 0
Core_0_L1I_RFO_miss 0
Core_0_L1I_prefetches 0
Core_0_L1I_prefetch_hit 0
Core_0_L1I_prefetch_miss 0
Core_0_L1I_writebacks 0
Core_0_L1I_writeback_hit 0
Core_0_L1I_writeback_miss 0
Core_0_L1I_prefetch_requested 0
Core_0_L1I_prefetch_issued 0
Core_0_L1I_prefetch_useful 0
Core_0_L1I_prefetch_useless 0
Core_0_L1I_prefetch_late 0
Core_0_L1I_average_miss_latency 231.00000

Core_0_L2C_total_access 3526385
Core_0_L2C_total_hit 950146
Core_0_L2C_total_miss 2576239
Core_0_L2C_loads 180051
Core_0_L2C_load_hit 0
Core_0_L2C_load_miss 180051
Core_0_L2C_RFOs 20
Core_0_L2C_RFO_hit 0
Core_0_L2C_RFO_miss 20
Core_0_L2C_prefetches 2396168
Core_0_L2C_prefetch_hit 0
Core_0_L2C_prefetch_miss 2396168
Core_0_L2C_writebacks 950146
Core_0_L2C_writeback_hit 950146
Core_0_L2C_writeback_miss 0
Core_0_L2C_prefetch_requested 0
Core_0_L2C_prefetch_issued 0
Core_0_L2C_prefetch_useful 0
Core_0_L2C_prefetch_useless 4836607
Core_0_L2C_prefetch_late 0
Core_0_L2C_average_miss_latency 172.03430

Core_0_LLC_total_access 3518942
Core_0_LLC_total_hit 650415
Core_0_LLC_total_miss 2868527
Core_0_LLC_loads 180051
Core_0_LLC_load_hit 0
Core_0_LLC_load_miss 180051
Core_0_LLC_RFOs 20
Core_0_LLC_RFO_hit 0
Core_0_LLC_RFO_miss 20
Core_0_LLC_prefetches 2396168
Core_0_LLC_prefetch_hit 0
Core_0_LLC_prefetch_miss 2396168
Core_0_LLC_writebacks 942703
Core_0_LLC_writeback_hit 650415
Core_0_LLC_writeback_miss 292288
Core_0_LLC_prefetch_requested 0
Core_0_LLC_prefetch_issued 0
Core_0_LLC_prefetch_useful 0
Core_0_LLC_prefetch_useless 4817642
Core_0_LLC_prefetch_late 0
Core_0_LLC_average_miss_latency 127.07191

Core_0_major_page_fault 0
Core_0_minor_page_fault 8199

CPU 0 L1D next line prefetcher final stats
Channel_0_RQ_row_buffer_hit 1481115
Channel_0_RQ_row_buffer_miss 1095124
Channel_0_WQ_row_buffer_hit 481710
Channel_0_WQ_row_buffer_miss 436450
Channel_0_WQ_full 0
Channel_0_dbus_congested 1726649

avg_congested_cycle 9
