*************************************************
   ChampSim Multicore Out-of-Order Simulator
   Last compiled: Dec 21 2023 20:29:48
*************************************************

trace_0 ./test_trace/462.libquantum-714B.champsimtrace.xz
CPU 0 L1D next line prefetcher
Initialize SHIP state
warmup_instructions 100000000
simulation_instructions 100000000
champsim_seed 222

num_cpus 1
cpu_freq 4000
dram_io_freq 2400
page_size 4096
block_size 64
max_read_per_cycle 8
max_fill_per_cycle 1
dram_channels 1
dram_ranks 1
dram_banks 8
dram_rows 65536
dram_columns 128
dram_row_size 8
dram_size 4096
dram_pages 1048576

fetch_width 6
decode_width 6
exec_width 4
lq_width 2
sq_width 2
retire_width 4
scheduler_size 128
branch_mispredict_penalty 20
rob_size 256
lq_size 72
sq_size 56
num_instr_destinations_sparc 4
num_instr_destinations 2
num_instr_sources 4

itlb_set 16
itlb_way 8
itlb_rq_size 16
itlb_wq_size 16
itlb_pq_size 0
itlb_mshr_size 8
itlb_latency 1

dtlb_set 16
dtlb_way 4
dtlb_rq_size 16
dtlb_wq_size 16
dtlb_pq_size 0
dtlb_mshr_size 8
dtlb_latency 1

stlb_set 128
stlb_way 12
stlb_rq_size 32
stlb_wq_size 32
stlb_pq_size 0
stlb_mshr_size 16
stlb_latency 8

l1i_size 32
l1i_set 64
l1i_way 8
l1i_rq_size 64
l1i_wq_size 64
l1i_pq_size 8
l1i_mshr_size 8
l1i_latency 1

l1d_size 32
l1d_set 64
l1d_way 8
l1d_rq_size 64
l1d_wq_size 64
l1d_pq_size 8
l1d_mshr_size 16
l1d_latency 4

l2c_size 512
l2c_set 1024
l2c_way 8
l2c_rq_size 32
l2c_wq_size 32
l2c_pq_size 16
l2c_mshr_size 32
l2c_latency 10

llc_size 2048
llc_set 2048
llc_way 16
llc_rq_size 32
llc_wq_size 32
llc_pq_size 32
llc_mshr_size 64
llc_latency 20

dram_channel_width 8
dram_wq_size 64
dram_rq_size 64
tRP 15
tRCD 15
tCAS 12.5
dram_dbus_turn_around_time 30
dram_write_high_wm 56
dram_write_low_wm 48
min_dram_writes_per_switch 16
dram_mtps 2400
dram_dbus_return_time 13


Heartbeat CPU  0 instructions:    1000000 cycles:     581510 heartbeat IPC: 1.71966 cumulative IPC: 1.71966 (Simulation time: 0 hr 0 min 1 sec) 
Heartbeat CPU  0 instructions:    2000003 cycles:    1163543 heartbeat IPC: 1.71812 cumulative IPC: 1.71889 (Simulation time: 0 hr 0 min 2 sec) 
Heartbeat CPU  0 instructions:    3000002 cycles:    1745575 heartbeat IPC: 1.71812 cumulative IPC: 1.71863 (Simulation time: 0 hr 0 min 3 sec) 
Heartbeat CPU  0 instructions:    4000000 cycles:    2327604 heartbeat IPC: 1.71812 cumulative IPC: 1.71851 (Simulation time: 0 hr 0 min 4 sec) 
Heartbeat CPU  0 instructions:    5000000 cycles:    2909636 heartbeat IPC: 1.71812 cumulative IPC: 1.71843 (Simulation time: 0 hr 0 min 5 sec) 
Heartbeat CPU  0 instructions:    6000000 cycles:    3491670 heartbeat IPC: 1.71811 cumulative IPC: 1.71838 (Simulation time: 0 hr 0 min 5 sec) 
Heartbeat CPU  0 instructions:    7000000 cycles:    4073701 heartbeat IPC: 1.71812 cumulative IPC: 1.71834 (Simulation time: 0 hr 0 min 6 sec) 
Heartbeat CPU  0 instructions:    8000000 cycles:    4655734 heartbeat IPC: 1.71812 cumulative IPC: 1.71831 (Simulation time: 0 hr 0 min 7 sec) 
Heartbeat CPU  0 instructions:    9000002 cycles:    5191185 heartbeat IPC: 1.86759 cumulative IPC: 1.73371 (Simulation time: 0 hr 0 min 8 sec) 
Heartbeat CPU  0 instructions:   10000002 cycles:    5711815 heartbeat IPC: 1.92075 cumulative IPC: 1.75076 (Simulation time: 0 hr 0 min 10 sec) 
Heartbeat CPU  0 instructions:   11000001 cycles:    6232468 heartbeat IPC: 1.92066 cumulative IPC: 1.76495 (Simulation time: 0 hr 0 min 11 sec) 
Heartbeat CPU  0 instructions:   12000000 cycles:    6753098 heartbeat IPC: 1.92075 cumulative IPC: 1.77696 (Simulation time: 0 hr 0 min 12 sec) 
Heartbeat CPU  0 instructions:   13000001 cycles:    7273775 heartbeat IPC: 1.92058 cumulative IPC: 1.78724 (Simulation time: 0 hr 0 min 14 sec) 
Heartbeat CPU  0 instructions:   14000001 cycles:    7794405 heartbeat IPC: 1.92075 cumulative IPC: 1.79616 (Simulation time: 0 hr 0 min 15 sec) 
Heartbeat CPU  0 instructions:   15000000 cycles:    8315058 heartbeat IPC: 1.92066 cumulative IPC: 1.80396 (Simulation time: 0 hr 0 min 16 sec) 
Heartbeat CPU  0 instructions:   16000000 cycles:    8835688 heartbeat IPC: 1.92075 cumulative IPC: 1.81084 (Simulation time: 0 hr 0 min 18 sec) 
Heartbeat CPU  0 instructions:   17000000 cycles:    9356365 heartbeat IPC: 1.92058 cumulative IPC: 1.81694 (Simulation time: 0 hr 0 min 19 sec) 
Heartbeat CPU  0 instructions:   18000000 cycles:    9876995 heartbeat IPC: 1.92075 cumulative IPC: 1.82242 (Simulation time: 0 hr 0 min 21 sec) 
Heartbeat CPU  0 instructions:   19000003 cycles:   10397646 heartbeat IPC: 1.92068 cumulative IPC: 1.82734 (Simulation time: 0 hr 0 min 22 sec) 
Heartbeat CPU  0 instructions:   20000000 cycles:   10918276 heartbeat IPC: 1.92074 cumulative IPC: 1.83179 (Simulation time: 0 hr 0 min 23 sec) 
Heartbeat CPU  0 instructions:   21000003 cycles:   11438953 heartbeat IPC: 1.92058 cumulative IPC: 1.83583 (Simulation time: 0 hr 0 min 25 sec) 
Heartbeat CPU  0 instructions:   22000003 cycles:   11959583 heartbeat IPC: 1.92075 cumulative IPC: 1.83953 (Simulation time: 0 hr 0 min 26 sec) 
Heartbeat CPU  0 instructions:   23000000 cycles:   12472053 heartbeat IPC: 1.95133 cumulative IPC: 1.84412 (Simulation time: 0 hr 0 min 27 sec) 
Heartbeat CPU  0 instructions:   24000000 cycles:   12892334 heartbeat IPC: 2.37936 cumulative IPC: 1.86157 (Simulation time: 0 hr 0 min 28 sec) 
Heartbeat CPU  0 instructions:   25000000 cycles:   13312610 heartbeat IPC: 2.37939 cumulative IPC: 1.87792 (Simulation time: 0 hr 0 min 29 sec) 
Heartbeat CPU  0 instructions:   26000000 cycles:   13732896 heartbeat IPC: 2.37933 cumulative IPC: 1.89326 (Simulation time: 0 hr 0 min 29 sec) 
Heartbeat CPU  0 instructions:   27000000 cycles:   14153207 heartbeat IPC: 2.37919 cumulative IPC: 1.90769 (Simulation time: 0 hr 0 min 30 sec) 
Heartbeat CPU  0 instructions:   28000000 cycles:   14573515 heartbeat IPC: 2.37921 cumulative IPC: 1.92129 (Simulation time: 0 hr 0 min 31 sec) 
Heartbeat CPU  0 instructions:   29000002 cycles:   14993793 heartbeat IPC: 2.37938 cumulative IPC: 1.93413 (Simulation time: 0 hr 0 min 32 sec) 
Heartbeat CPU  0 instructions:   30000003 cycles:   15414059 heartbeat IPC: 2.37945 cumulative IPC: 1.94628 (Simulation time: 0 hr 0 min 32 sec) 
Heartbeat CPU  0 instructions:   31000001 cycles:   15834353 heartbeat IPC: 2.37928 cumulative IPC: 1.95777 (Simulation time: 0 hr 0 min 33 sec) 
Heartbeat CPU  0 instructions:   32000000 cycles:   16254672 heartbeat IPC: 2.37914 cumulative IPC: 1.96866 (Simulation time: 0 hr 0 min 34 sec) 
Heartbeat CPU  0 instructions:   33000003 cycles:   16674946 heartbeat IPC: 2.37941 cumulative IPC: 1.97902 (Simulation time: 0 hr 0 min 35 sec) 
Heartbeat CPU  0 instructions:   34000000 cycles:   17095208 heartbeat IPC: 2.37946 cumulative IPC: 1.98886 (Simulation time: 0 hr 0 min 35 sec) 
Heartbeat CPU  0 instructions:   35000002 cycles:   17515497 heartbeat IPC: 2.37932 cumulative IPC: 1.99823 (Simulation time: 0 hr 0 min 36 sec) 
Heartbeat CPU  0 instructions:   36000000 cycles:   17935810 heartbeat IPC: 2.37917 cumulative IPC: 2.00716 (Simulation time: 0 hr 0 min 37 sec) 
Heartbeat CPU  0 instructions:   37000000 cycles:   18356126 heartbeat IPC: 2.37916 cumulative IPC: 2.01568 (Simulation time: 0 hr 0 min 38 sec) 
Heartbeat CPU  0 instructions:   38000002 cycles:   18776395 heartbeat IPC: 2.37943 cumulative IPC: 2.02382 (Simulation time: 0 hr 0 min 38 sec) 
Heartbeat CPU  0 instructions:   39000000 cycles:   19196678 heartbeat IPC: 2.37934 cumulative IPC: 2.03160 (Simulation time: 0 hr 0 min 39 sec) 
Heartbeat CPU  0 instructions:   40000000 cycles:   19616972 heartbeat IPC: 2.37929 cumulative IPC: 2.03905 (Simulation time: 0 hr 0 min 40 sec) 
Heartbeat CPU  0 instructions:   41000002 cycles:   20037308 heartbeat IPC: 2.37905 cumulative IPC: 2.04618 (Simulation time: 0 hr 0 min 40 sec) 
Heartbeat CPU  0 instructions:   42000003 cycles:   20457578 heartbeat IPC: 2.37943 cumulative IPC: 2.05303 (Simulation time: 0 hr 0 min 41 sec) 
Heartbeat CPU  0 instructions:   43000001 cycles:   20877848 heartbeat IPC: 2.37942 cumulative IPC: 2.05960 (Simulation time: 0 hr 0 min 42 sec) 
Heartbeat CPU  0 instructions:   44000000 cycles:   21298118 heartbeat IPC: 2.37942 cumulative IPC: 2.06591 (Simulation time: 0 hr 0 min 43 sec) 
Heartbeat CPU  0 instructions:   45000001 cycles:   21718421 heartbeat IPC: 2.37924 cumulative IPC: 2.07197 (Simulation time: 0 hr 0 min 43 sec) 
Heartbeat CPU  0 instructions:   46000001 cycles:   22138728 heartbeat IPC: 2.37921 cumulative IPC: 2.07781 (Simulation time: 0 hr 0 min 44 sec) 
Heartbeat CPU  0 instructions:   47000000 cycles:   22718235 heartbeat IPC: 1.72560 cumulative IPC: 2.06882 (Simulation time: 0 hr 0 min 45 sec) 
Heartbeat CPU  0 instructions:   48000000 cycles:   23300974 heartbeat IPC: 1.71603 cumulative IPC: 2.06000 (Simulation time: 0 hr 0 min 46 sec) 
Heartbeat CPU  0 instructions:   49000000 cycles:   23883718 heartbeat IPC: 1.71602 cumulative IPC: 2.05161 (Simulation time: 0 hr 0 min 47 sec) 
Heartbeat CPU  0 instructions:   50000002 cycles:   24466460 heartbeat IPC: 1.71603 cumulative IPC: 2.04361 (Simulation time: 0 hr 0 min 47 sec) 
Heartbeat CPU  0 instructions:   51000002 cycles:   25049201 heartbeat IPC: 1.71603 cumulative IPC: 2.03599 (Simulation time: 0 hr 0 min 48 sec) 
Heartbeat CPU  0 instructions:   52000000 cycles:   25631940 heartbeat IPC: 1.71603 cumulative IPC: 2.02872 (Simulation time: 0 hr 0 min 49 sec) 
Heartbeat CPU  0 instructions:   53000000 cycles:   26214681 heartbeat IPC: 1.71603 cumulative IPC: 2.02177 (Simulation time: 0 hr 0 min 50 sec) 
Heartbeat CPU  0 instructions:   54000003 cycles:   26797424 heartbeat IPC: 1.71603 cumulative IPC: 2.01512 (Simulation time: 0 hr 0 min 51 sec) 
Heartbeat CPU  0 instructions:   55000002 cycles:   27380166 heartbeat IPC: 1.71602 cumulative IPC: 2.00875 (Simulation time: 0 hr 0 min 51 sec) 
Heartbeat CPU  0 instructions:   56000000 cycles:   27962905 heartbeat IPC: 1.71603 cumulative IPC: 2.00265 (Simulation time: 0 hr 0 min 52 sec) 
Heartbeat CPU  0 instructions:   57000000 cycles:   28545647 heartbeat IPC: 1.71603 cumulative IPC: 1.99680 (Simulation time: 0 hr 0 min 53 sec) 
Heartbeat CPU  0 instructions:   58000000 cycles:   29128391 heartbeat IPC: 1.71602 cumulative IPC: 1.99118 (Simulation time: 0 hr 0 min 54 sec) 
Heartbeat CPU  0 instructions:   59000000 cycles:   29711132 heartbeat IPC: 1.71603 cumulative IPC: 1.98579 (Simulation time: 0 hr 0 min 55 sec) 
Heartbeat CPU  0 instructions:   60000000 cycles:   30293875 heartbeat IPC: 1.71602 cumulative IPC: 1.98060 (Simulation time: 0 hr 0 min 56 sec) 
Heartbeat CPU  0 instructions:   61000002 cycles:   30876615 heartbeat IPC: 1.71603 cumulative IPC: 1.97561 (Simulation time: 0 hr 0 min 56 sec) 
Heartbeat CPU  0 instructions:   62000002 cycles:   31459356 heartbeat IPC: 1.71603 cumulative IPC: 1.97080 (Simulation time: 0 hr 0 min 57 sec) 
Heartbeat CPU  0 instructions:   63000001 cycles:   32042098 heartbeat IPC: 1.71602 cumulative IPC: 1.96616 (Simulation time: 0 hr 0 min 58 sec) 
Heartbeat CPU  0 instructions:   64000000 cycles:   32624837 heartbeat IPC: 1.71603 cumulative IPC: 1.96170 (Simulation time: 0 hr 0 min 59 sec) 
Heartbeat CPU  0 instructions:   65000003 cycles:   33207580 heartbeat IPC: 1.71603 cumulative IPC: 1.95738 (Simulation time: 0 hr 1 min 0 sec) 
Heartbeat CPU  0 instructions:   66000002 cycles:   33790322 heartbeat IPC: 1.71602 cumulative IPC: 1.95322 (Simulation time: 0 hr 1 min 0 sec) 
Heartbeat CPU  0 instructions:   67000001 cycles:   34373061 heartbeat IPC: 1.71603 cumulative IPC: 1.94920 (Simulation time: 0 hr 1 min 1 sec) 
Heartbeat CPU  0 instructions:   68000000 cycles:   34955897 heartbeat IPC: 1.71575 cumulative IPC: 1.94531 (Simulation time: 0 hr 1 min 2 sec) 
Heartbeat CPU  0 instructions:   69000000 cycles:   35538997 heartbeat IPC: 1.71497 cumulative IPC: 1.94153 (Simulation time: 0 hr 1 min 3 sec) 
Heartbeat CPU  0 instructions:   70000000 cycles:   36061076 heartbeat IPC: 1.91542 cumulative IPC: 1.94115 (Simulation time: 0 hr 1 min 4 sec) 
Heartbeat CPU  0 instructions:   71000003 cycles:   36577262 heartbeat IPC: 1.93729 cumulative IPC: 1.94110 (Simulation time: 0 hr 1 min 6 sec) 
Heartbeat CPU  0 instructions:   72000000 cycles:   37093428 heartbeat IPC: 1.93736 cumulative IPC: 1.94104 (Simulation time: 0 hr 1 min 7 sec) 
Heartbeat CPU  0 instructions:   73000002 cycles:   37609641 heartbeat IPC: 1.93719 cumulative IPC: 1.94099 (Simulation time: 0 hr 1 min 8 sec) 
Heartbeat CPU  0 instructions:   74000002 cycles:   38125807 heartbeat IPC: 1.93736 cumulative IPC: 1.94094 (Simulation time: 0 hr 1 min 10 sec) 
Heartbeat CPU  0 instructions:   75000001 cycles:   38641995 heartbeat IPC: 1.93728 cumulative IPC: 1.94089 (Simulation time: 0 hr 1 min 11 sec) 
Heartbeat CPU  0 instructions:   76000000 cycles:   39158161 heartbeat IPC: 1.93736 cumulative IPC: 1.94085 (Simulation time: 0 hr 1 min 12 sec) 
Heartbeat CPU  0 instructions:   77000001 cycles:   39674374 heartbeat IPC: 1.93719 cumulative IPC: 1.94080 (Simulation time: 0 hr 1 min 14 sec) 
Heartbeat CPU  0 instructions:   78000001 cycles:   40190540 heartbeat IPC: 1.93736 cumulative IPC: 1.94076 (Simulation time: 0 hr 1 min 15 sec) 
Heartbeat CPU  0 instructions:   79000000 cycles:   40706727 heartbeat IPC: 1.93728 cumulative IPC: 1.94071 (Simulation time: 0 hr 1 min 16 sec) 
Heartbeat CPU  0 instructions:   80000000 cycles:   41222893 heartbeat IPC: 1.93736 cumulative IPC: 1.94067 (Simulation time: 0 hr 1 min 18 sec) 
Heartbeat CPU  0 instructions:   81000000 cycles:   41739106 heartbeat IPC: 1.93718 cumulative IPC: 1.94063 (Simulation time: 0 hr 1 min 19 sec) 
Heartbeat CPU  0 instructions:   82000000 cycles:   42255272 heartbeat IPC: 1.93736 cumulative IPC: 1.94059 (Simulation time: 0 hr 1 min 21 sec) 
Heartbeat CPU  0 instructions:   83000003 cycles:   42771459 heartbeat IPC: 1.93729 cumulative IPC: 1.94055 (Simulation time: 0 hr 1 min 22 sec) 
Heartbeat CPU  0 instructions:   84000000 cycles:   43265282 heartbeat IPC: 2.02501 cumulative IPC: 1.94151 (Simulation time: 0 hr 1 min 23 sec) 
Heartbeat CPU  0 instructions:   85000000 cycles:   43685565 heartbeat IPC: 2.37935 cumulative IPC: 1.94572 (Simulation time: 0 hr 1 min 24 sec) 
Heartbeat CPU  0 instructions:   86000001 cycles:   44105852 heartbeat IPC: 2.37933 cumulative IPC: 1.94985 (Simulation time: 0 hr 1 min 25 sec) 
Heartbeat CPU  0 instructions:   87000003 cycles:   44526153 heartbeat IPC: 2.37925 cumulative IPC: 1.95391 (Simulation time: 0 hr 1 min 25 sec) 
Heartbeat CPU  0 instructions:   88000000 cycles:   44946513 heartbeat IPC: 2.37891 cumulative IPC: 1.95788 (Simulation time: 0 hr 1 min 26 sec) 
Heartbeat CPU  0 instructions:   89000001 cycles:   45366793 heartbeat IPC: 2.37937 cumulative IPC: 1.96179 (Simulation time: 0 hr 1 min 27 sec) 
Heartbeat CPU  0 instructions:   90000001 cycles:   45787072 heartbeat IPC: 2.37937 cumulative IPC: 1.96562 (Simulation time: 0 hr 1 min 27 sec) 
Heartbeat CPU  0 instructions:   91000000 cycles:   46207352 heartbeat IPC: 2.37936 cumulative IPC: 1.96938 (Simulation time: 0 hr 1 min 28 sec) 
Heartbeat CPU  0 instructions:   92000000 cycles:   46627659 heartbeat IPC: 2.37921 cumulative IPC: 1.97308 (Simulation time: 0 hr 1 min 29 sec) 
Heartbeat CPU  0 instructions:   93000003 cycles:   47047992 heartbeat IPC: 2.37907 cumulative IPC: 1.97671 (Simulation time: 0 hr 1 min 30 sec) 
Heartbeat CPU  0 instructions:   94000000 cycles:   47468274 heartbeat IPC: 2.37935 cumulative IPC: 1.98027 (Simulation time: 0 hr 1 min 30 sec) 
Heartbeat CPU  0 instructions:   95000002 cycles:   47888557 heartbeat IPC: 2.37935 cumulative IPC: 1.98377 (Simulation time: 0 hr 1 min 31 sec) 
Heartbeat CPU  0 instructions:   96000000 cycles:   48308852 heartbeat IPC: 2.37928 cumulative IPC: 1.98721 (Simulation time: 0 hr 1 min 32 sec) 
Heartbeat CPU  0 instructions:   97000000 cycles:   48729208 heartbeat IPC: 2.37894 cumulative IPC: 1.99059 (Simulation time: 0 hr 1 min 33 sec) 
Heartbeat CPU  0 instructions:   98000000 cycles:   49149498 heartbeat IPC: 2.37931 cumulative IPC: 1.99392 (Simulation time: 0 hr 1 min 33 sec) 
Heartbeat CPU  0 instructions:   99000003 cycles:   49569793 heartbeat IPC: 2.37929 cumulative IPC: 1.99718 (Simulation time: 0 hr 1 min 34 sec) 
Heartbeat CPU  0 instructions:  100000000 cycles:   49990078 heartbeat IPC: 2.37933 cumulative IPC: 2.00040 (Simulation time: 0 hr 1 min 35 sec) 

Warmup complete CPU  0 instructions:  100000001 cycles:   49990080 (Simulation time: 0 hr 1 min 35 sec) 

Heartbeat CPU  0 instructions:  101000003 cycles:   51386639 heartbeat IPC: 0.71605 cumulative IPC: 0.71605 (Simulation time: 0 hr 1 min 36 sec) 
Heartbeat CPU  0 instructions:  102000003 cycles:   52781759 heartbeat IPC: 0.71678 cumulative IPC: 0.71642 (Simulation time: 0 hr 1 min 38 sec) 
Heartbeat CPU  0 instructions:  103000001 cycles:   54176043 heartbeat IPC: 0.71721 cumulative IPC: 0.71668 (Simulation time: 0 hr 1 min 39 sec) 
Heartbeat CPU  0 instructions:  104000000 cycles:   55575508 heartbeat IPC: 0.71456 cumulative IPC: 0.71615 (Simulation time: 0 hr 1 min 41 sec) 
Heartbeat CPU  0 instructions:  105000000 cycles:   56967400 heartbeat IPC: 0.71845 cumulative IPC: 0.71661 (Simulation time: 0 hr 1 min 42 sec) 
Heartbeat CPU  0 instructions:  106000002 cycles:   58131183 heartbeat IPC: 0.85927 cumulative IPC: 0.73700 (Simulation time: 0 hr 1 min 43 sec) 
Heartbeat CPU  0 instructions:  107000001 cycles:   59118182 heartbeat IPC: 1.01317 cumulative IPC: 0.76686 (Simulation time: 0 hr 1 min 45 sec) 
Heartbeat CPU  0 instructions:  108000000 cycles:   60592547 heartbeat IPC: 0.67826 cumulative IPC: 0.75454 (Simulation time: 0 hr 1 min 46 sec) 
Heartbeat CPU  0 instructions:  109000000 cycles:   62081428 heartbeat IPC: 0.67165 cumulative IPC: 0.74433 (Simulation time: 0 hr 1 min 48 sec) 
Heartbeat CPU  0 instructions:  110000001 cycles:   63577405 heartbeat IPC: 0.66846 cumulative IPC: 0.73598 (Simulation time: 0 hr 1 min 49 sec) 
Heartbeat CPU  0 instructions:  111000001 cycles:   65074943 heartbeat IPC: 0.66776 cumulative IPC: 0.72921 (Simulation time: 0 hr 1 min 50 sec) 
Heartbeat CPU  0 instructions:  112000000 cycles:   66564600 heartbeat IPC: 0.67129 cumulative IPC: 0.72400 (Simulation time: 0 hr 1 min 52 sec) 
Heartbeat CPU  0 instructions:  113000002 cycles:   68057559 heartbeat IPC: 0.66981 cumulative IPC: 0.71952 (Simulation time: 0 hr 1 min 53 sec) 
Heartbeat CPU  0 instructions:  114000002 cycles:   69540675 heartbeat IPC: 0.67426 cumulative IPC: 0.71609 (Simulation time: 0 hr 1 min 55 sec) 
Heartbeat CPU  0 instructions:  115000003 cycles:   71035958 heartbeat IPC: 0.66877 cumulative IPC: 0.71273 (Simulation time: 0 hr 1 min 56 sec) 
Heartbeat CPU  0 instructions:  116000000 cycles:   72524345 heartbeat IPC: 0.67187 cumulative IPC: 0.71003 (Simulation time: 0 hr 1 min 58 sec) 
Heartbeat CPU  0 instructions:  117000000 cycles:   74024703 heartbeat IPC: 0.66651 cumulative IPC: 0.70731 (Simulation time: 0 hr 1 min 59 sec) 
Heartbeat CPU  0 instructions:  118000000 cycles:   75515567 heartbeat IPC: 0.67075 cumulative IPC: 0.70518 (Simulation time: 0 hr 2 min 0 sec) 
Heartbeat CPU  0 instructions:  119000001 cycles:   77015717 heartbeat IPC: 0.66660 cumulative IPC: 0.70304 (Simulation time: 0 hr 2 min 2 sec) 
Heartbeat CPU  0 instructions:  120000000 cycles:   78503418 heartbeat IPC: 0.67218 cumulative IPC: 0.70143 (Simulation time: 0 hr 2 min 3 sec) 
Heartbeat CPU  0 instructions:  121000000 cycles:   79996186 heartbeat IPC: 0.66990 cumulative IPC: 0.69986 (Simulation time: 0 hr 2 min 5 sec) 
Heartbeat CPU  0 instructions:  122000002 cycles:   81483938 heartbeat IPC: 0.67216 cumulative IPC: 0.69855 (Simulation time: 0 hr 2 min 6 sec) 
Heartbeat CPU  0 instructions:  123000002 cycles:   82974891 heartbeat IPC: 0.67071 cumulative IPC: 0.69729 (Simulation time: 0 hr 2 min 8 sec) 
Heartbeat CPU  0 instructions:  124000000 cycles:   84460824 heartbeat IPC: 0.67298 cumulative IPC: 0.69624 (Simulation time: 0 hr 2 min 9 sec) 
Heartbeat CPU  0 instructions:  125000003 cycles:   85957160 heartbeat IPC: 0.66830 cumulative IPC: 0.69508 (Simulation time: 0 hr 2 min 10 sec) 
Heartbeat CPU  0 instructions:  126000000 cycles:   87441540 heartbeat IPC: 0.67368 cumulative IPC: 0.69423 (Simulation time: 0 hr 2 min 12 sec) 
Heartbeat CPU  0 instructions:  127000000 cycles:   88926871 heartbeat IPC: 0.67325 cumulative IPC: 0.69343 (Simulation time: 0 hr 2 min 13 sec) 
Heartbeat CPU  0 instructions:  128000000 cycles:   90429459 heartbeat IPC: 0.66552 cumulative IPC: 0.69239 (Simulation time: 0 hr 2 min 15 sec) 
Heartbeat CPU  0 instructions:  129000001 cycles:   91783882 heartbeat IPC: 0.73832 cumulative IPC: 0.69388 (Simulation time: 0 hr 2 min 16 sec) 
Heartbeat CPU  0 instructions:  130000001 cycles:   92875553 heartbeat IPC: 0.91603 cumulative IPC: 0.69954 (Simulation time: 0 hr 2 min 17 sec) 
Heartbeat CPU  0 instructions:  131000000 cycles:   95530337 heartbeat IPC: 0.37668 cumulative IPC: 0.68072 (Simulation time: 0 hr 2 min 20 sec) 
Heartbeat CPU  0 instructions:  132000000 cycles:   98514690 heartbeat IPC: 0.33508 cumulative IPC: 0.65946 (Simulation time: 0 hr 2 min 22 sec) 
Heartbeat CPU  0 instructions:  133000000 cycles:  101484811 heartbeat IPC: 0.33669 cumulative IPC: 0.64084 (Simulation time: 0 hr 2 min 24 sec) 
Heartbeat CPU  0 instructions:  134000000 cycles:  104440667 heartbeat IPC: 0.33831 cumulative IPC: 0.62442 (Simulation time: 0 hr 2 min 26 sec) 
Heartbeat CPU  0 instructions:  135000000 cycles:  107426736 heartbeat IPC: 0.33489 cumulative IPC: 0.60937 (Simulation time: 0 hr 2 min 29 sec) 
Heartbeat CPU  0 instructions:  136000000 cycles:  110402129 heartbeat IPC: 0.33609 cumulative IPC: 0.59591 (Simulation time: 0 hr 2 min 31 sec) 
Heartbeat CPU  0 instructions:  137000000 cycles:  113354240 heartbeat IPC: 0.33874 cumulative IPC: 0.58393 (Simulation time: 0 hr 2 min 33 sec) 
Heartbeat CPU  0 instructions:  138000000 cycles:  116312398 heartbeat IPC: 0.33805 cumulative IPC: 0.57296 (Simulation time: 0 hr 2 min 35 sec) 
Heartbeat CPU  0 instructions:  139000000 cycles:  119294668 heartbeat IPC: 0.33532 cumulative IPC: 0.56273 (Simulation time: 0 hr 2 min 38 sec) 
Heartbeat CPU  0 instructions:  140000000 cycles:  122283737 heartbeat IPC: 0.33455 cumulative IPC: 0.55330 (Simulation time: 0 hr 2 min 40 sec) 
Heartbeat CPU  0 instructions:  141000000 cycles:  125262739 heartbeat IPC: 0.33568 cumulative IPC: 0.54469 (Simulation time: 0 hr 2 min 42 sec) 
Heartbeat CPU  0 instructions:  142000000 cycles:  128242077 heartbeat IPC: 0.33565 cumulative IPC: 0.53673 (Simulation time: 0 hr 2 min 45 sec) 
Heartbeat CPU  0 instructions:  143000000 cycles:  131225424 heartbeat IPC: 0.33519 cumulative IPC: 0.52933 (Simulation time: 0 hr 2 min 47 sec) 
Heartbeat CPU  0 instructions:  144000000 cycles:  134193595 heartbeat IPC: 0.33691 cumulative IPC: 0.52254 (Simulation time: 0 hr 2 min 49 sec) 
Heartbeat CPU  0 instructions:  145000002 cycles:  136978226 heartbeat IPC: 0.35911 cumulative IPC: 0.51731 (Simulation time: 0 hr 2 min 51 sec) 
Heartbeat CPU  0 instructions:  146000000 cycles:  138514621 heartbeat IPC: 0.65087 cumulative IPC: 0.51963 (Simulation time: 0 hr 2 min 53 sec) 
Heartbeat CPU  0 instructions:  147000000 cycles:  139906829 heartbeat IPC: 0.71828 cumulative IPC: 0.52271 (Simulation time: 0 hr 2 min 54 sec) 
Heartbeat CPU  0 instructions:  148000000 cycles:  141302889 heartbeat IPC: 0.71630 cumulative IPC: 0.52567 (Simulation time: 0 hr 2 min 56 sec) 
Heartbeat CPU  0 instructions:  149000000 cycles:  142696284 heartbeat IPC: 0.71767 cumulative IPC: 0.52855 (Simulation time: 0 hr 2 min 57 sec) 
Heartbeat CPU  0 instructions:  150000001 cycles:  144089807 heartbeat IPC: 0.71761 cumulative IPC: 0.53135 (Simulation time: 0 hr 2 min 59 sec) 
Heartbeat CPU  0 instructions:  151000001 cycles:  145485945 heartbeat IPC: 0.71626 cumulative IPC: 0.53405 (Simulation time: 0 hr 3 min 0 sec) 
Heartbeat CPU  0 instructions:  152000000 cycles:  146881394 heartbeat IPC: 0.71661 cumulative IPC: 0.53668 (Simulation time: 0 hr 3 min 2 sec) 
Heartbeat CPU  0 instructions:  153000001 cycles:  148274419 heartbeat IPC: 0.71786 cumulative IPC: 0.53925 (Simulation time: 0 hr 3 min 3 sec) 
Heartbeat CPU  0 instructions:  154000003 cycles:  149668638 heartbeat IPC: 0.71725 cumulative IPC: 0.54174 (Simulation time: 0 hr 3 min 4 sec) 
Heartbeat CPU  0 instructions:  155000001 cycles:  151065231 heartbeat IPC: 0.71603 cumulative IPC: 0.54415 (Simulation time: 0 hr 3 min 6 sec) 
Heartbeat CPU  0 instructions:  156000000 cycles:  152457045 heartbeat IPC: 0.71849 cumulative IPC: 0.54652 (Simulation time: 0 hr 3 min 7 sec) 
Heartbeat CPU  0 instructions:  157000002 cycles:  153852292 heartbeat IPC: 0.71672 cumulative IPC: 0.54880 (Simulation time: 0 hr 3 min 9 sec) 
Heartbeat CPU  0 instructions:  158000000 cycles:  155243274 heartbeat IPC: 0.71892 cumulative IPC: 0.55105 (Simulation time: 0 hr 3 min 10 sec) 
Heartbeat CPU  0 instructions:  159000002 cycles:  156637341 heartbeat IPC: 0.71733 cumulative IPC: 0.55323 (Simulation time: 0 hr 3 min 12 sec) 
Heartbeat CPU  0 instructions:  160000000 cycles:  158033322 heartbeat IPC: 0.71634 cumulative IPC: 0.55533 (Simulation time: 0 hr 3 min 13 sec) 
Heartbeat CPU  0 instructions:  161000000 cycles:  159430354 heartbeat IPC: 0.71580 cumulative IPC: 0.55738 (Simulation time: 0 hr 3 min 15 sec) 
Heartbeat CPU  0 instructions:  162000002 cycles:  160823575 heartbeat IPC: 0.71776 cumulative IPC: 0.55940 (Simulation time: 0 hr 3 min 16 sec) 
Heartbeat CPU  0 instructions:  163000000 cycles:  162215991 heartbeat IPC: 0.71817 cumulative IPC: 0.56137 (Simulation time: 0 hr 3 min 17 sec) 
Heartbeat CPU  0 instructions:  164000000 cycles:  163610400 heartbeat IPC: 0.71715 cumulative IPC: 0.56328 (Simulation time: 0 hr 3 min 19 sec) 
Heartbeat CPU  0 instructions:  165000001 cycles:  165006024 heartbeat IPC: 0.71653 cumulative IPC: 0.56514 (Simulation time: 0 hr 3 min 20 sec) 
Heartbeat CPU  0 instructions:  166000003 cycles:  166400190 heartbeat IPC: 0.71728 cumulative IPC: 0.56696 (Simulation time: 0 hr 3 min 22 sec) 
Heartbeat CPU  0 instructions:  167000001 cycles:  167522242 heartbeat IPC: 0.89122 cumulative IPC: 0.57006 (Simulation time: 0 hr 3 min 23 sec) 
Heartbeat CPU  0 instructions:  168000000 cycles:  168558951 heartbeat IPC: 0.96459 cumulative IPC: 0.57351 (Simulation time: 0 hr 3 min 24 sec) 
Heartbeat CPU  0 instructions:  169000000 cycles:  170104335 heartbeat IPC: 0.64709 cumulative IPC: 0.57445 (Simulation time: 0 hr 3 min 26 sec) 
Heartbeat CPU  0 instructions:  170000003 cycles:  171675055 heartbeat IPC: 0.63665 cumulative IPC: 0.57526 (Simulation time: 0 hr 3 min 27 sec) 
Heartbeat CPU  0 instructions:  171000001 cycles:  173253934 heartbeat IPC: 0.63336 cumulative IPC: 0.57600 (Simulation time: 0 hr 3 min 29 sec) 
Heartbeat CPU  0 instructions:  172000000 cycles:  174828894 heartbeat IPC: 0.63494 cumulative IPC: 0.57674 (Simulation time: 0 hr 3 min 31 sec) 
Heartbeat CPU  0 instructions:  173000001 cycles:  176406250 heartbeat IPC: 0.63397 cumulative IPC: 0.57746 (Simulation time: 0 hr 3 min 32 sec) 
Heartbeat CPU  0 instructions:  174000000 cycles:  177969813 heartbeat IPC: 0.63956 cumulative IPC: 0.57822 (Simulation time: 0 hr 3 min 34 sec) 
Heartbeat CPU  0 instructions:  175000002 cycles:  179542727 heartbeat IPC: 0.63576 cumulative IPC: 0.57892 (Simulation time: 0 hr 3 min 35 sec) 
Heartbeat CPU  0 instructions:  176000000 cycles:  181104921 heartbeat IPC: 0.64012 cumulative IPC: 0.57964 (Simulation time: 0 hr 3 min 37 sec) 
Heartbeat CPU  0 instructions:  177000002 cycles:  182673622 heartbeat IPC: 0.63747 cumulative IPC: 0.58033 (Simulation time: 0 hr 3 min 38 sec) 
Heartbeat CPU  0 instructions:  178000000 cycles:  184249083 heartbeat IPC: 0.63473 cumulative IPC: 0.58097 (Simulation time: 0 hr 3 min 40 sec) 
Heartbeat CPU  0 instructions:  179000003 cycles:  185815115 heartbeat IPC: 0.63856 cumulative IPC: 0.58163 (Simulation time: 0 hr 3 min 41 sec) 
Heartbeat CPU  0 instructions:  180000000 cycles:  187398615 heartbeat IPC: 0.63151 cumulative IPC: 0.58221 (Simulation time: 0 hr 3 min 43 sec) 
Heartbeat CPU  0 instructions:  181000000 cycles:  188979484 heartbeat IPC: 0.63256 cumulative IPC: 0.58278 (Simulation time: 0 hr 3 min 44 sec) 
Heartbeat CPU  0 instructions:  182000001 cycles:  190547925 heartbeat IPC: 0.63758 cumulative IPC: 0.58339 (Simulation time: 0 hr 3 min 46 sec) 
Heartbeat CPU  0 instructions:  183000000 cycles:  192120831 heartbeat IPC: 0.63577 cumulative IPC: 0.58397 (Simulation time: 0 hr 3 min 48 sec) 
Heartbeat CPU  0 instructions:  184000000 cycles:  193689956 heartbeat IPC: 0.63730 cumulative IPC: 0.58455 (Simulation time: 0 hr 3 min 49 sec) 
Heartbeat CPU  0 instructions:  185000001 cycles:  195253052 heartbeat IPC: 0.63976 cumulative IPC: 0.58515 (Simulation time: 0 hr 3 min 51 sec) 
Heartbeat CPU  0 instructions:  186000002 cycles:  196826932 heartbeat IPC: 0.63537 cumulative IPC: 0.58568 (Simulation time: 0 hr 3 min 52 sec) 
Heartbeat CPU  0 instructions:  187000000 cycles:  198388151 heartbeat IPC: 0.64052 cumulative IPC: 0.58626 (Simulation time: 0 hr 3 min 54 sec) 
Heartbeat CPU  0 instructions:  188000000 cycles:  199958406 heartbeat IPC: 0.63684 cumulative IPC: 0.58679 (Simulation time: 0 hr 3 min 55 sec) 
Heartbeat CPU  0 instructions:  189000001 cycles:  201531787 heartbeat IPC: 0.63557 cumulative IPC: 0.58730 (Simulation time: 0 hr 3 min 57 sec) 
Heartbeat CPU  0 instructions:  190000000 cycles:  202889747 heartbeat IPC: 0.73640 cumulative IPC: 0.58862 (Simulation time: 0 hr 3 min 58 sec) 
Heartbeat CPU  0 instructions:  191000000 cycles:  203973692 heartbeat IPC: 0.92256 cumulative IPC: 0.59097 (Simulation time: 0 hr 4 min 0 sec) 
Heartbeat CPU  0 instructions:  192000000 cycles:  206666319 heartbeat IPC: 0.37138 cumulative IPC: 0.58720 (Simulation time: 0 hr 4 min 2 sec) 
Heartbeat CPU  0 instructions:  193000000 cycles:  209619500 heartbeat IPC: 0.33862 cumulative IPC: 0.58260 (Simulation time: 0 hr 4 min 4 sec) 
Heartbeat CPU  0 instructions:  194000000 cycles:  212556997 heartbeat IPC: 0.34043 cumulative IPC: 0.57822 (Simulation time: 0 hr 4 min 7 sec) 
Heartbeat CPU  0 instructions:  195000000 cycles:  215479515 heartbeat IPC: 0.34217 cumulative IPC: 0.57405 (Simulation time: 0 hr 4 min 9 sec) 
Heartbeat CPU  0 instructions:  196000000 cycles:  218438692 heartbeat IPC: 0.33793 cumulative IPC: 0.56991 (Simulation time: 0 hr 4 min 11 sec) 
Heartbeat CPU  0 instructions:  197000000 cycles:  221376461 heartbeat IPC: 0.34039 cumulative IPC: 0.56597 (Simulation time: 0 hr 4 min 13 sec) 
Heartbeat CPU  0 instructions:  198000000 cycles:  224300823 heartbeat IPC: 0.34195 cumulative IPC: 0.56221 (Simulation time: 0 hr 4 min 16 sec) 
Heartbeat CPU  0 instructions:  199000000 cycles:  227225173 heartbeat IPC: 0.34196 cumulative IPC: 0.55858 (Simulation time: 0 hr 4 min 18 sec) 
Heartbeat CPU  0 instructions:  200000000 cycles:  230172394 heartbeat IPC: 0.33930 cumulative IPC: 0.55499 (Simulation time: 0 hr 4 min 20 sec) 
Finished CPU 0 instructions: 100000000 cycles: 180182327 cumulative IPC: 0.55499 (Simulation time: 0 hr 4 min 20 sec) 

ChampSim completed all CPUs

[ROI Statistics]
Core_0_instructions 100000000
Core_0_cycles 180182327
Core_0_IPC 0.55499

Core_0_branch_prediction_accuracy 99.58952
Core_0_branch_MPKI 0.70683
Core_0_average_ROB_occupancy_at_mispredict 218.77139

Core_0_L1D_total_access 20888493
Core_0_L1D_total_hit 18312255
Core_0_L1D_total_miss 2576238
Core_0_L1D_loads 10269781
Core_0_L1D_load_hit 8125512
Core_0_L1D_load_miss 2144269
Core_0_L1D_RFOs 3492980
Core_0_L1D_RFO_hit 3492960
Core_0_L1D_RFO_miss 20
Core_0_L1D_prefetches 7125732
Core_0_L1D_prefetch_hit 6693783
Core_0_L1D_prefetch_miss 431949
Core_0_L1D_writebacks 0
Core_0_L1D_writeback_hit 0
Core_0_L1D_writeback_miss 0
Core_0_L1D_prefetch_requested 41875957
Core_0_L1D_prefetch_issued 41605088
Core_0_L1D_prefetch_useful 2748315
Core_0_L1D_prefetch_useless 30
Core_0_L1D_prefetch_late 2095811
Core_0_L1D_average_miss_latency 105925556.04615

Core_0_L1I_total_access 32452754
Core_0_L1I_total_hit 32452753
Core_0_L1I_total_miss 1
Core_0_L1I_loads 32452754
Core_0_L1I_load_hit 32452753
Core_0_L1I_load_miss 1
Core_0_L1I_RFOs 0
Core_0_L1I_RFO_hit 0
Core_0_L1I_RFO_miss 0
Core_0_L1I_prefetches 0
Core_0_L1I_prefetch_hit 0
Core_0_L1I_prefetch_miss 0
Core_0_L1I_writebacks 0
Core_0_L1I_writeback_hit 0
Core_0_L1I_writeback_miss 0
Core_0_L1I_prefetch_requested 0
Core_0_L1I_prefetch_issued 0
Core_0_L1I_prefetch_useful 0
Core_0_L1I_prefetch_useless 0
Core_0_L1I_prefetch_late 0
Core_0_L1I_average_miss_latency 231.00000

Core_0_L2C_total_access 3526385
Core_0_L2C_total_hit 950146
Core_0_L2C_total_miss 2576239
Core_0_L2C_loads 179540
Core_0_L2C_load_hit 0
Core_0_L2C_load_miss 179540
Core_0_L2C_RFOs 20
Core_0_L2C_RFO_hit 0
Core_0_L2C_RFO_miss 20
Core_0_L2C_prefetches 2396679
Core_0_L2C_prefetch_hit 0
Core_0_L2C_prefetch_miss 2396679
Core_0_L2C_writebacks 950146
Core_0_L2C_writeback_hit 950146
Core_0_L2C_writeback_miss 0
Core_0_L2C_prefetch_requested 0
Core_0_L2C_prefetch_issued 0
Core_0_L2C_prefetch_useful 0
Core_0_L2C_prefetch_useless 4837118
Core_0_L2C_prefetch_late 0
Core_0_L2C_average_miss_latency 167.89695

Core_0_LLC_total_access 3518942
Core_0_LLC_total_hit 116190
Core_0_LLC_total_miss 3402752
Core_0_LLC_loads 179540
Core_0_LLC_load_hit 3818
Core_0_LLC_load_miss 175722
Core_0_LLC_RFOs 20
Core_0_LLC_RFO_hit 16
Core_0_LLC_RFO_miss 4
Core_0_LLC_prefetches 2396679
Core_0_LLC_prefetch_hit 112326
Core_0_LLC_prefetch_miss 2284353
Core_0_LLC_writebacks 942703
Core_0_LLC_writeback_hit 30
Core_0_LLC_writeback_miss 942673
Core_0_LLC_prefetch_requested 0
Core_0_LLC_prefetch_issued 0
Core_0_LLC_prefetch_useful 0
Core_0_LLC_prefetch_useless 4672328
Core_0_LLC_prefetch_late 0
Core_0_LLC_average_miss_latency 103.95163

Core_0_major_page_fault 0
Core_0_minor_page_fault 8199

CPU 0 L1D next line prefetcher final stats
Channel_0_RQ_row_buffer_hit 1402082
Channel_0_RQ_row_buffer_miss 1057997
Channel_0_WQ_row_buffer_hit 470574
Channel_0_WQ_row_buffer_miss 470064
Channel_0_WQ_full 0
Channel_0_dbus_congested 1749227

avg_congested_cycle 9
