*************************************************
   ChampSim Multicore Out-of-Order Simulator
   Last compiled: Dec 21 2023 17:35:06
*************************************************

trace_0 ./test_trace/462.libquantum-714B.champsimtrace.xz
CPU 0 L1D next line prefetcher
CPU 0 L2C IP-based stride prefetcher
Initialize SRRIP state
LLC Next Line Prefetcher
warmup_instructions 100000000
simulation_instructions 100000000
champsim_seed 222

num_cpus 1
cpu_freq 4000
dram_io_freq 2400
page_size 4096
block_size 64
max_read_per_cycle 8
max_fill_per_cycle 1
dram_channels 1
dram_ranks 1
dram_banks 8
dram_rows 65536
dram_columns 128
dram_row_size 8
dram_size 4096
dram_pages 1048576

fetch_width 6
decode_width 6
exec_width 4
lq_width 2
sq_width 2
retire_width 4
scheduler_size 128
branch_mispredict_penalty 20
rob_size 256
lq_size 72
sq_size 56
num_instr_destinations_sparc 4
num_instr_destinations 2
num_instr_sources 4

itlb_set 16
itlb_way 8
itlb_rq_size 16
itlb_wq_size 16
itlb_pq_size 0
itlb_mshr_size 8
itlb_latency 1

dtlb_set 16
dtlb_way 4
dtlb_rq_size 16
dtlb_wq_size 16
dtlb_pq_size 0
dtlb_mshr_size 8
dtlb_latency 1

stlb_set 128
stlb_way 12
stlb_rq_size 32
stlb_wq_size 32
stlb_pq_size 0
stlb_mshr_size 16
stlb_latency 8

l1i_size 32
l1i_set 64
l1i_way 8
l1i_rq_size 64
l1i_wq_size 64
l1i_pq_size 8
l1i_mshr_size 8
l1i_latency 1

l1d_size 32
l1d_set 64
l1d_way 8
l1d_rq_size 64
l1d_wq_size 64
l1d_pq_size 8
l1d_mshr_size 16
l1d_latency 4

l2c_size 512
l2c_set 1024
l2c_way 8
l2c_rq_size 32
l2c_wq_size 32
l2c_pq_size 16
l2c_mshr_size 32
l2c_latency 10

llc_size 2048
llc_set 2048
llc_way 16
llc_rq_size 32
llc_wq_size 32
llc_pq_size 32
llc_mshr_size 64
llc_latency 20

dram_channel_width 8
dram_wq_size 64
dram_rq_size 64
tRP 15
tRCD 15
tCAS 12.5
dram_dbus_turn_around_time 30
dram_write_high_wm 56
dram_write_low_wm 48
min_dram_writes_per_switch 16
dram_mtps 2400
dram_dbus_return_time 13


Heartbeat CPU  0 instructions:    1000000 cycles:     581510 heartbeat IPC: 1.71966 cumulative IPC: 1.71966 (Simulation time: 0 hr 0 min 0 sec) 
Heartbeat CPU  0 instructions:    2000003 cycles:    1163543 heartbeat IPC: 1.71812 cumulative IPC: 1.71889 (Simulation time: 0 hr 0 min 1 sec) 
Heartbeat CPU  0 instructions:    3000002 cycles:    1745575 heartbeat IPC: 1.71812 cumulative IPC: 1.71863 (Simulation time: 0 hr 0 min 2 sec) 
Heartbeat CPU  0 instructions:    4000000 cycles:    2327604 heartbeat IPC: 1.71812 cumulative IPC: 1.71851 (Simulation time: 0 hr 0 min 3 sec) 
Heartbeat CPU  0 instructions:    5000000 cycles:    2909636 heartbeat IPC: 1.71812 cumulative IPC: 1.71843 (Simulation time: 0 hr 0 min 4 sec) 
Heartbeat CPU  0 instructions:    6000000 cycles:    3491670 heartbeat IPC: 1.71811 cumulative IPC: 1.71838 (Simulation time: 0 hr 0 min 5 sec) 
Heartbeat CPU  0 instructions:    7000000 cycles:    4073701 heartbeat IPC: 1.71812 cumulative IPC: 1.71834 (Simulation time: 0 hr 0 min 6 sec) 
Heartbeat CPU  0 instructions:    8000000 cycles:    4655734 heartbeat IPC: 1.71812 cumulative IPC: 1.71831 (Simulation time: 0 hr 0 min 7 sec) 
Heartbeat CPU  0 instructions:    9000002 cycles:    5192886 heartbeat IPC: 1.86167 cumulative IPC: 1.73314 (Simulation time: 0 hr 0 min 8 sec) 
Heartbeat CPU  0 instructions:   10000002 cycles:    5715748 heartbeat IPC: 1.91255 cumulative IPC: 1.74955 (Simulation time: 0 hr 0 min 9 sec) 
Heartbeat CPU  0 instructions:   11000001 cycles:    6238633 heartbeat IPC: 1.91246 cumulative IPC: 1.76321 (Simulation time: 0 hr 0 min 11 sec) 
Heartbeat CPU  0 instructions:   12000000 cycles:    6761495 heartbeat IPC: 1.91255 cumulative IPC: 1.77476 (Simulation time: 0 hr 0 min 12 sec) 
Heartbeat CPU  0 instructions:   13000001 cycles:    7284404 heartbeat IPC: 1.91238 cumulative IPC: 1.78463 (Simulation time: 0 hr 0 min 14 sec) 
Heartbeat CPU  0 instructions:   14000001 cycles:    7807266 heartbeat IPC: 1.91255 cumulative IPC: 1.79320 (Simulation time: 0 hr 0 min 15 sec) 
Heartbeat CPU  0 instructions:   15000000 cycles:    8330151 heartbeat IPC: 1.91246 cumulative IPC: 1.80069 (Simulation time: 0 hr 0 min 16 sec) 
Heartbeat CPU  0 instructions:   16000000 cycles:    8853013 heartbeat IPC: 1.91255 cumulative IPC: 1.80729 (Simulation time: 0 hr 0 min 18 sec) 
Heartbeat CPU  0 instructions:   17000000 cycles:    9375922 heartbeat IPC: 1.91238 cumulative IPC: 1.81316 (Simulation time: 0 hr 0 min 19 sec) 
Heartbeat CPU  0 instructions:   18000000 cycles:    9898784 heartbeat IPC: 1.91255 cumulative IPC: 1.81841 (Simulation time: 0 hr 0 min 21 sec) 
Heartbeat CPU  0 instructions:   19000003 cycles:   10421669 heartbeat IPC: 1.91247 cumulative IPC: 1.82312 (Simulation time: 0 hr 0 min 22 sec) 
Heartbeat CPU  0 instructions:   20000000 cycles:   10944531 heartbeat IPC: 1.91254 cumulative IPC: 1.82740 (Simulation time: 0 hr 0 min 23 sec) 
Heartbeat CPU  0 instructions:   21000003 cycles:   11467440 heartbeat IPC: 1.91238 cumulative IPC: 1.83127 (Simulation time: 0 hr 0 min 25 sec) 
Heartbeat CPU  0 instructions:   22000003 cycles:   11990302 heartbeat IPC: 1.91255 cumulative IPC: 1.83482 (Simulation time: 0 hr 0 min 26 sec) 
Heartbeat CPU  0 instructions:   23000000 cycles:   12504818 heartbeat IPC: 1.94357 cumulative IPC: 1.83929 (Simulation time: 0 hr 0 min 27 sec) 
Heartbeat CPU  0 instructions:   24000000 cycles:   12925099 heartbeat IPC: 2.37936 cumulative IPC: 1.85685 (Simulation time: 0 hr 0 min 28 sec) 
Heartbeat CPU  0 instructions:   25000000 cycles:   13345375 heartbeat IPC: 2.37939 cumulative IPC: 1.87331 (Simulation time: 0 hr 0 min 29 sec) 
Heartbeat CPU  0 instructions:   26000000 cycles:   13765661 heartbeat IPC: 2.37933 cumulative IPC: 1.88876 (Simulation time: 0 hr 0 min 30 sec) 
Heartbeat CPU  0 instructions:   27000000 cycles:   14185972 heartbeat IPC: 2.37919 cumulative IPC: 1.90329 (Simulation time: 0 hr 0 min 31 sec) 
Heartbeat CPU  0 instructions:   28000000 cycles:   14606280 heartbeat IPC: 2.37921 cumulative IPC: 1.91698 (Simulation time: 0 hr 0 min 31 sec) 
Heartbeat CPU  0 instructions:   29000002 cycles:   15026558 heartbeat IPC: 2.37938 cumulative IPC: 1.92992 (Simulation time: 0 hr 0 min 32 sec) 
Heartbeat CPU  0 instructions:   30000003 cycles:   15446824 heartbeat IPC: 2.37945 cumulative IPC: 1.94215 (Simulation time: 0 hr 0 min 33 sec) 
Heartbeat CPU  0 instructions:   31000001 cycles:   15867118 heartbeat IPC: 2.37928 cumulative IPC: 1.95373 (Simulation time: 0 hr 0 min 34 sec) 
Heartbeat CPU  0 instructions:   32000000 cycles:   16287437 heartbeat IPC: 2.37914 cumulative IPC: 1.96470 (Simulation time: 0 hr 0 min 34 sec) 
Heartbeat CPU  0 instructions:   33000003 cycles:   16707711 heartbeat IPC: 2.37941 cumulative IPC: 1.97514 (Simulation time: 0 hr 0 min 35 sec) 
Heartbeat CPU  0 instructions:   34000000 cycles:   17127973 heartbeat IPC: 2.37946 cumulative IPC: 1.98506 (Simulation time: 0 hr 0 min 36 sec) 
Heartbeat CPU  0 instructions:   35000002 cycles:   17548262 heartbeat IPC: 2.37932 cumulative IPC: 1.99450 (Simulation time: 0 hr 0 min 37 sec) 
Heartbeat CPU  0 instructions:   36000000 cycles:   17968575 heartbeat IPC: 2.37917 cumulative IPC: 2.00350 (Simulation time: 0 hr 0 min 38 sec) 
Heartbeat CPU  0 instructions:   37000000 cycles:   18388891 heartbeat IPC: 2.37916 cumulative IPC: 2.01208 (Simulation time: 0 hr 0 min 38 sec) 
Heartbeat CPU  0 instructions:   38000002 cycles:   18809160 heartbeat IPC: 2.37943 cumulative IPC: 2.02029 (Simulation time: 0 hr 0 min 39 sec) 
Heartbeat CPU  0 instructions:   39000000 cycles:   19229443 heartbeat IPC: 2.37934 cumulative IPC: 2.02814 (Simulation time: 0 hr 0 min 40 sec) 
Heartbeat CPU  0 instructions:   40000000 cycles:   19649737 heartbeat IPC: 2.37929 cumulative IPC: 2.03565 (Simulation time: 0 hr 0 min 41 sec) 
Heartbeat CPU  0 instructions:   41000002 cycles:   20070073 heartbeat IPC: 2.37905 cumulative IPC: 2.04284 (Simulation time: 0 hr 0 min 41 sec) 
Heartbeat CPU  0 instructions:   42000003 cycles:   20490343 heartbeat IPC: 2.37943 cumulative IPC: 2.04975 (Simulation time: 0 hr 0 min 42 sec) 
Heartbeat CPU  0 instructions:   43000001 cycles:   20910613 heartbeat IPC: 2.37942 cumulative IPC: 2.05637 (Simulation time: 0 hr 0 min 43 sec) 
Heartbeat CPU  0 instructions:   44000000 cycles:   21330883 heartbeat IPC: 2.37942 cumulative IPC: 2.06274 (Simulation time: 0 hr 0 min 44 sec) 
Heartbeat CPU  0 instructions:   45000001 cycles:   21751186 heartbeat IPC: 2.37924 cumulative IPC: 2.06885 (Simulation time: 0 hr 0 min 44 sec) 
Heartbeat CPU  0 instructions:   46000001 cycles:   22171493 heartbeat IPC: 2.37921 cumulative IPC: 2.07474 (Simulation time: 0 hr 0 min 45 sec) 
Heartbeat CPU  0 instructions:   47000000 cycles:   22751000 heartbeat IPC: 1.72560 cumulative IPC: 2.06584 (Simulation time: 0 hr 0 min 46 sec) 
Heartbeat CPU  0 instructions:   48000000 cycles:   23333739 heartbeat IPC: 1.71603 cumulative IPC: 2.05711 (Simulation time: 0 hr 0 min 47 sec) 
Heartbeat CPU  0 instructions:   49000000 cycles:   23916483 heartbeat IPC: 1.71602 cumulative IPC: 2.04880 (Simulation time: 0 hr 0 min 48 sec) 
Heartbeat CPU  0 instructions:   50000002 cycles:   24499225 heartbeat IPC: 1.71603 cumulative IPC: 2.04088 (Simulation time: 0 hr 0 min 49 sec) 
Heartbeat CPU  0 instructions:   51000002 cycles:   25081966 heartbeat IPC: 1.71603 cumulative IPC: 2.03333 (Simulation time: 0 hr 0 min 49 sec) 
Heartbeat CPU  0 instructions:   52000000 cycles:   25664705 heartbeat IPC: 1.71603 cumulative IPC: 2.02613 (Simulation time: 0 hr 0 min 50 sec) 
Heartbeat CPU  0 instructions:   53000000 cycles:   26247446 heartbeat IPC: 1.71603 cumulative IPC: 2.01924 (Simulation time: 0 hr 0 min 51 sec) 
Heartbeat CPU  0 instructions:   54000003 cycles:   26830189 heartbeat IPC: 1.71603 cumulative IPC: 2.01266 (Simulation time: 0 hr 0 min 52 sec) 
Heartbeat CPU  0 instructions:   55000002 cycles:   27412931 heartbeat IPC: 1.71602 cumulative IPC: 2.00635 (Simulation time: 0 hr 0 min 53 sec) 
Heartbeat CPU  0 instructions:   56000000 cycles:   27995670 heartbeat IPC: 1.71603 cumulative IPC: 2.00031 (Simulation time: 0 hr 0 min 54 sec) 
Heartbeat CPU  0 instructions:   57000000 cycles:   28578412 heartbeat IPC: 1.71603 cumulative IPC: 1.99451 (Simulation time: 0 hr 0 min 55 sec) 
Heartbeat CPU  0 instructions:   58000000 cycles:   29161156 heartbeat IPC: 1.71602 cumulative IPC: 1.98895 (Simulation time: 0 hr 0 min 55 sec) 
Heartbeat CPU  0 instructions:   59000000 cycles:   29743897 heartbeat IPC: 1.71603 cumulative IPC: 1.98360 (Simulation time: 0 hr 0 min 56 sec) 
Heartbeat CPU  0 instructions:   60000000 cycles:   30326640 heartbeat IPC: 1.71602 cumulative IPC: 1.97846 (Simulation time: 0 hr 0 min 57 sec) 
Heartbeat CPU  0 instructions:   61000002 cycles:   30909380 heartbeat IPC: 1.71603 cumulative IPC: 1.97351 (Simulation time: 0 hr 0 min 58 sec) 
Heartbeat CPU  0 instructions:   62000002 cycles:   31492121 heartbeat IPC: 1.71603 cumulative IPC: 1.96875 (Simulation time: 0 hr 0 min 59 sec) 
Heartbeat CPU  0 instructions:   63000001 cycles:   32074863 heartbeat IPC: 1.71602 cumulative IPC: 1.96415 (Simulation time: 0 hr 1 min 0 sec) 
Heartbeat CPU  0 instructions:   64000000 cycles:   32657602 heartbeat IPC: 1.71603 cumulative IPC: 1.95973 (Simulation time: 0 hr 1 min 1 sec) 
Heartbeat CPU  0 instructions:   65000003 cycles:   33240345 heartbeat IPC: 1.71603 cumulative IPC: 1.95546 (Simulation time: 0 hr 1 min 1 sec) 
Heartbeat CPU  0 instructions:   66000002 cycles:   33823087 heartbeat IPC: 1.71602 cumulative IPC: 1.95133 (Simulation time: 0 hr 1 min 2 sec) 
Heartbeat CPU  0 instructions:   67000001 cycles:   34405826 heartbeat IPC: 1.71603 cumulative IPC: 1.94734 (Simulation time: 0 hr 1 min 3 sec) 
Heartbeat CPU  0 instructions:   68000000 cycles:   34988569 heartbeat IPC: 1.71602 cumulative IPC: 1.94349 (Simulation time: 0 hr 1 min 4 sec) 
Heartbeat CPU  0 instructions:   69000000 cycles:   35571314 heartbeat IPC: 1.71602 cumulative IPC: 1.93977 (Simulation time: 0 hr 1 min 5 sec) 
Heartbeat CPU  0 instructions:   70000000 cycles:   36097436 heartbeat IPC: 1.90070 cumulative IPC: 1.93920 (Simulation time: 0 hr 1 min 6 sec) 
Heartbeat CPU  0 instructions:   71000003 cycles:   36618086 heartbeat IPC: 1.92068 cumulative IPC: 1.93893 (Simulation time: 0 hr 1 min 8 sec) 
Heartbeat CPU  0 instructions:   72000000 cycles:   37138716 heartbeat IPC: 1.92074 cumulative IPC: 1.93868 (Simulation time: 0 hr 1 min 9 sec) 
Heartbeat CPU  0 instructions:   73000002 cycles:   37659393 heartbeat IPC: 1.92058 cumulative IPC: 1.93843 (Simulation time: 0 hr 1 min 10 sec) 
Heartbeat CPU  0 instructions:   74000002 cycles:   38180023 heartbeat IPC: 1.92075 cumulative IPC: 1.93819 (Simulation time: 0 hr 1 min 12 sec) 
Heartbeat CPU  0 instructions:   75000001 cycles:   38700677 heartbeat IPC: 1.92066 cumulative IPC: 1.93795 (Simulation time: 0 hr 1 min 13 sec) 
Heartbeat CPU  0 instructions:   76000000 cycles:   39221307 heartbeat IPC: 1.92075 cumulative IPC: 1.93772 (Simulation time: 0 hr 1 min 15 sec) 
Heartbeat CPU  0 instructions:   77000001 cycles:   39741984 heartbeat IPC: 1.92058 cumulative IPC: 1.93750 (Simulation time: 0 hr 1 min 16 sec) 
Heartbeat CPU  0 instructions:   78000001 cycles:   40262614 heartbeat IPC: 1.92075 cumulative IPC: 1.93728 (Simulation time: 0 hr 1 min 17 sec) 
Heartbeat CPU  0 instructions:   79000000 cycles:   40783268 heartbeat IPC: 1.92066 cumulative IPC: 1.93707 (Simulation time: 0 hr 1 min 19 sec) 
Heartbeat CPU  0 instructions:   80000000 cycles:   41303898 heartbeat IPC: 1.92075 cumulative IPC: 1.93686 (Simulation time: 0 hr 1 min 20 sec) 
Heartbeat CPU  0 instructions:   81000000 cycles:   41824575 heartbeat IPC: 1.92058 cumulative IPC: 1.93666 (Simulation time: 0 hr 1 min 21 sec) 
Heartbeat CPU  0 instructions:   82000000 cycles:   42345205 heartbeat IPC: 1.92075 cumulative IPC: 1.93646 (Simulation time: 0 hr 1 min 23 sec) 
Heartbeat CPU  0 instructions:   83000003 cycles:   42865857 heartbeat IPC: 1.92067 cumulative IPC: 1.93627 (Simulation time: 0 hr 1 min 24 sec) 
Heartbeat CPU  0 instructions:   84000000 cycles:   43363103 heartbeat IPC: 2.01107 cumulative IPC: 1.93713 (Simulation time: 0 hr 1 min 26 sec) 
Heartbeat CPU  0 instructions:   85000000 cycles:   43783386 heartbeat IPC: 2.37935 cumulative IPC: 1.94138 (Simulation time: 0 hr 1 min 26 sec) 
Heartbeat CPU  0 instructions:   86000001 cycles:   44203673 heartbeat IPC: 2.37933 cumulative IPC: 1.94554 (Simulation time: 0 hr 1 min 27 sec) 
Heartbeat CPU  0 instructions:   87000003 cycles:   44623974 heartbeat IPC: 2.37925 cumulative IPC: 1.94962 (Simulation time: 0 hr 1 min 28 sec) 
Heartbeat CPU  0 instructions:   88000000 cycles:   45044334 heartbeat IPC: 2.37891 cumulative IPC: 1.95363 (Simulation time: 0 hr 1 min 29 sec) 
Heartbeat CPU  0 instructions:   89000001 cycles:   45464614 heartbeat IPC: 2.37937 cumulative IPC: 1.95757 (Simulation time: 0 hr 1 min 29 sec) 
Heartbeat CPU  0 instructions:   90000001 cycles:   45884893 heartbeat IPC: 2.37937 cumulative IPC: 1.96143 (Simulation time: 0 hr 1 min 30 sec) 
Heartbeat CPU  0 instructions:   91000000 cycles:   46305173 heartbeat IPC: 2.37936 cumulative IPC: 1.96522 (Simulation time: 0 hr 1 min 31 sec) 
Heartbeat CPU  0 instructions:   92000000 cycles:   46725480 heartbeat IPC: 2.37921 cumulative IPC: 1.96895 (Simulation time: 0 hr 1 min 32 sec) 
Heartbeat CPU  0 instructions:   93000003 cycles:   47145813 heartbeat IPC: 2.37907 cumulative IPC: 1.97260 (Simulation time: 0 hr 1 min 32 sec) 
Heartbeat CPU  0 instructions:   94000000 cycles:   47566095 heartbeat IPC: 2.37935 cumulative IPC: 1.97620 (Simulation time: 0 hr 1 min 33 sec) 
Heartbeat CPU  0 instructions:   95000002 cycles:   47986378 heartbeat IPC: 2.37935 cumulative IPC: 1.97973 (Simulation time: 0 hr 1 min 34 sec) 
Heartbeat CPU  0 instructions:   96000000 cycles:   48406673 heartbeat IPC: 2.37928 cumulative IPC: 1.98320 (Simulation time: 0 hr 1 min 35 sec) 
Heartbeat CPU  0 instructions:   97000000 cycles:   48827029 heartbeat IPC: 2.37894 cumulative IPC: 1.98660 (Simulation time: 0 hr 1 min 36 sec) 
Heartbeat CPU  0 instructions:   98000000 cycles:   49247319 heartbeat IPC: 2.37931 cumulative IPC: 1.98996 (Simulation time: 0 hr 1 min 36 sec) 
Heartbeat CPU  0 instructions:   99000003 cycles:   49667614 heartbeat IPC: 2.37929 cumulative IPC: 1.99325 (Simulation time: 0 hr 1 min 37 sec) 
Heartbeat CPU  0 instructions:  100000000 cycles:   50087899 heartbeat IPC: 2.37933 cumulative IPC: 1.99649 (Simulation time: 0 hr 1 min 38 sec) 

Warmup complete CPU  0 instructions:  100000001 cycles:   50087901 (Simulation time: 0 hr 1 min 38 sec) 

Heartbeat CPU  0 instructions:  101000003 cycles:   51167665 heartbeat IPC: 0.92613 cumulative IPC: 0.92613 (Simulation time: 0 hr 1 min 39 sec) 
Heartbeat CPU  0 instructions:  102000003 cycles:   52275458 heartbeat IPC: 0.90270 cumulative IPC: 0.91426 (Simulation time: 0 hr 1 min 41 sec) 
Heartbeat CPU  0 instructions:  103000001 cycles:   53380435 heartbeat IPC: 0.90499 cumulative IPC: 0.91115 (Simulation time: 0 hr 1 min 42 sec) 
Heartbeat CPU  0 instructions:  104000000 cycles:   54489645 heartbeat IPC: 0.90154 cumulative IPC: 0.90873 (Simulation time: 0 hr 1 min 44 sec) 
Heartbeat CPU  0 instructions:  105000000 cycles:   55598344 heartbeat IPC: 0.90196 cumulative IPC: 0.90737 (Simulation time: 0 hr 1 min 45 sec) 
Heartbeat CPU  0 instructions:  106000002 cycles:   56711055 heartbeat IPC: 0.89871 cumulative IPC: 0.90591 (Simulation time: 0 hr 1 min 46 sec) 
Heartbeat CPU  0 instructions:  107000001 cycles:   57824500 heartbeat IPC: 0.89811 cumulative IPC: 0.90479 (Simulation time: 0 hr 1 min 48 sec) 
Heartbeat CPU  0 instructions:  108000000 cycles:   58909695 heartbeat IPC: 0.92149 cumulative IPC: 0.90684 (Simulation time: 0 hr 1 min 49 sec) 
Heartbeat CPU  0 instructions:  109000000 cycles:   60063168 heartbeat IPC: 0.86695 cumulative IPC: 0.90223 (Simulation time: 0 hr 1 min 51 sec) 
Heartbeat CPU  0 instructions:  110000001 cycles:   61248449 heartbeat IPC: 0.84368 cumulative IPC: 0.89601 (Simulation time: 0 hr 1 min 52 sec) 
Heartbeat CPU  0 instructions:  111000001 cycles:   62440380 heartbeat IPC: 0.83897 cumulative IPC: 0.89051 (Simulation time: 0 hr 1 min 53 sec) 
Heartbeat CPU  0 instructions:  112000000 cycles:   63634054 heartbeat IPC: 0.83775 cumulative IPC: 0.88586 (Simulation time: 0 hr 1 min 55 sec) 
Heartbeat CPU  0 instructions:  113000002 cycles:   64834108 heartbeat IPC: 0.83330 cumulative IPC: 0.88158 (Simulation time: 0 hr 1 min 56 sec) 
Heartbeat CPU  0 instructions:  114000002 cycles:   66023896 heartbeat IPC: 0.84049 cumulative IPC: 0.87851 (Simulation time: 0 hr 1 min 58 sec) 
Heartbeat CPU  0 instructions:  115000003 cycles:   67213225 heartbeat IPC: 0.84081 cumulative IPC: 0.87590 (Simulation time: 0 hr 1 min 59 sec) 
Heartbeat CPU  0 instructions:  116000000 cycles:   68412356 heartbeat IPC: 0.83393 cumulative IPC: 0.87315 (Simulation time: 0 hr 2 min 1 sec) 
Heartbeat CPU  0 instructions:  117000000 cycles:   69613737 heartbeat IPC: 0.83238 cumulative IPC: 0.87064 (Simulation time: 0 hr 2 min 2 sec) 
Heartbeat CPU  0 instructions:  118000000 cycles:   70807689 heartbeat IPC: 0.83755 cumulative IPC: 0.86873 (Simulation time: 0 hr 2 min 3 sec) 
Heartbeat CPU  0 instructions:  119000001 cycles:   72009792 heartbeat IPC: 0.83188 cumulative IPC: 0.86671 (Simulation time: 0 hr 2 min 5 sec) 
Heartbeat CPU  0 instructions:  120000000 cycles:   73209143 heartbeat IPC: 0.83378 cumulative IPC: 0.86501 (Simulation time: 0 hr 2 min 6 sec) 
Heartbeat CPU  0 instructions:  121000000 cycles:   74398160 heartbeat IPC: 0.84103 cumulative IPC: 0.86383 (Simulation time: 0 hr 2 min 8 sec) 
Heartbeat CPU  0 instructions:  122000002 cycles:   75593291 heartbeat IPC: 0.83673 cumulative IPC: 0.86256 (Simulation time: 0 hr 2 min 9 sec) 
Heartbeat CPU  0 instructions:  123000002 cycles:   76791816 heartbeat IPC: 0.83436 cumulative IPC: 0.86130 (Simulation time: 0 hr 2 min 11 sec) 
Heartbeat CPU  0 instructions:  124000000 cycles:   77993021 heartbeat IPC: 0.83250 cumulative IPC: 0.86006 (Simulation time: 0 hr 2 min 12 sec) 
Heartbeat CPU  0 instructions:  125000003 cycles:   79185927 heartbeat IPC: 0.83829 cumulative IPC: 0.85916 (Simulation time: 0 hr 2 min 13 sec) 
Heartbeat CPU  0 instructions:  126000000 cycles:   80380739 heartbeat IPC: 0.83695 cumulative IPC: 0.85829 (Simulation time: 0 hr 2 min 15 sec) 
Heartbeat CPU  0 instructions:  127000000 cycles:   81569431 heartbeat IPC: 0.84126 cumulative IPC: 0.85765 (Simulation time: 0 hr 2 min 16 sec) 
Heartbeat CPU  0 instructions:  128000000 cycles:   82759258 heartbeat IPC: 0.84046 cumulative IPC: 0.85702 (Simulation time: 0 hr 2 min 18 sec) 
Heartbeat CPU  0 instructions:  129000001 cycles:   83958911 heartbeat IPC: 0.83358 cumulative IPC: 0.85619 (Simulation time: 0 hr 2 min 19 sec) 
Heartbeat CPU  0 instructions:  130000001 cycles:   85147089 heartbeat IPC: 0.84162 cumulative IPC: 0.85570 (Simulation time: 0 hr 2 min 20 sec) 
Heartbeat CPU  0 instructions:  131000000 cycles:   86713271 heartbeat IPC: 0.63849 cumulative IPC: 0.84641 (Simulation time: 0 hr 2 min 22 sec) 
Heartbeat CPU  0 instructions:  132000000 cycles:   89170637 heartbeat IPC: 0.40694 cumulative IPC: 0.81878 (Simulation time: 0 hr 2 min 24 sec) 
Heartbeat CPU  0 instructions:  133000000 cycles:   91611088 heartbeat IPC: 0.40976 cumulative IPC: 0.79474 (Simulation time: 0 hr 2 min 27 sec) 
Heartbeat CPU  0 instructions:  134000000 cycles:   94059922 heartbeat IPC: 0.40836 cumulative IPC: 0.77322 (Simulation time: 0 hr 2 min 29 sec) 
Heartbeat CPU  0 instructions:  135000000 cycles:   96505255 heartbeat IPC: 0.40894 cumulative IPC: 0.75403 (Simulation time: 0 hr 2 min 31 sec) 
Heartbeat CPU  0 instructions:  136000000 cycles:   98948299 heartbeat IPC: 0.40933 cumulative IPC: 0.73679 (Simulation time: 0 hr 2 min 33 sec) 
Heartbeat CPU  0 instructions:  137000000 cycles:  101401370 heartbeat IPC: 0.40765 cumulative IPC: 0.72106 (Simulation time: 0 hr 2 min 36 sec) 
Heartbeat CPU  0 instructions:  138000000 cycles:  103857135 heartbeat IPC: 0.40721 cumulative IPC: 0.70672 (Simulation time: 0 hr 2 min 38 sec) 
Heartbeat CPU  0 instructions:  139000000 cycles:  106294255 heartbeat IPC: 0.41032 cumulative IPC: 0.69387 (Simulation time: 0 hr 2 min 40 sec) 
Heartbeat CPU  0 instructions:  140000000 cycles:  108733472 heartbeat IPC: 0.40997 cumulative IPC: 0.68206 (Simulation time: 0 hr 2 min 42 sec) 
Heartbeat CPU  0 instructions:  141000001 cycles:  111176702 heartbeat IPC: 0.40929 cumulative IPC: 0.67115 (Simulation time: 0 hr 2 min 45 sec) 
Heartbeat CPU  0 instructions:  142000000 cycles:  113615947 heartbeat IPC: 0.40996 cumulative IPC: 0.66113 (Simulation time: 0 hr 2 min 47 sec) 
Heartbeat CPU  0 instructions:  143000000 cycles:  116055890 heartbeat IPC: 0.40985 cumulative IPC: 0.65183 (Simulation time: 0 hr 2 min 49 sec) 
Heartbeat CPU  0 instructions:  144000000 cycles:  118506001 heartbeat IPC: 0.40814 cumulative IPC: 0.64310 (Simulation time: 0 hr 2 min 51 sec) 
Heartbeat CPU  0 instructions:  145000002 cycles:  120736216 heartbeat IPC: 0.44839 cumulative IPC: 0.63696 (Simulation time: 0 hr 2 min 53 sec) 
Heartbeat CPU  0 instructions:  146000000 cycles:  122340623 heartbeat IPC: 0.62328 cumulative IPC: 0.63665 (Simulation time: 0 hr 2 min 55 sec) 
Heartbeat CPU  0 instructions:  147000000 cycles:  123842786 heartbeat IPC: 0.66571 cumulative IPC: 0.63725 (Simulation time: 0 hr 2 min 57 sec) 
Heartbeat CPU  0 instructions:  148000000 cycles:  125270846 heartbeat IPC: 0.70025 cumulative IPC: 0.63844 (Simulation time: 0 hr 2 min 58 sec) 
Heartbeat CPU  0 instructions:  149000000 cycles:  126484386 heartbeat IPC: 0.82404 cumulative IPC: 0.64139 (Simulation time: 0 hr 3 min 0 sec) 
Heartbeat CPU  0 instructions:  150000000 cycles:  127601658 heartbeat IPC: 0.89504 cumulative IPC: 0.64505 (Simulation time: 0 hr 3 min 1 sec) 
Heartbeat CPU  0 instructions:  151000001 cycles:  128711015 heartbeat IPC: 0.90142 cumulative IPC: 0.64866 (Simulation time: 0 hr 3 min 3 sec) 
Heartbeat CPU  0 instructions:  152000000 cycles:  129812880 heartbeat IPC: 0.90755 cumulative IPC: 0.65224 (Simulation time: 0 hr 3 min 4 sec) 
Heartbeat CPU  0 instructions:  153000001 cycles:  130919072 heartbeat IPC: 0.90400 cumulative IPC: 0.65569 (Simulation time: 0 hr 3 min 5 sec) 
Heartbeat CPU  0 instructions:  154000003 cycles:  132038485 heartbeat IPC: 0.89333 cumulative IPC: 0.65893 (Simulation time: 0 hr 3 min 7 sec) 
Heartbeat CPU  0 instructions:  155000001 cycles:  133147464 heartbeat IPC: 0.90173 cumulative IPC: 0.66218 (Simulation time: 0 hr 3 min 8 sec) 
Heartbeat CPU  0 instructions:  156000000 cycles:  134263866 heartbeat IPC: 0.89573 cumulative IPC: 0.66527 (Simulation time: 0 hr 3 min 10 sec) 
Heartbeat CPU  0 instructions:  157000002 cycles:  135378022 heartbeat IPC: 0.89754 cumulative IPC: 0.66831 (Simulation time: 0 hr 3 min 11 sec) 
Heartbeat CPU  0 instructions:  158000000 cycles:  136486787 heartbeat IPC: 0.90190 cumulative IPC: 0.67130 (Simulation time: 0 hr 3 min 13 sec) 
Heartbeat CPU  0 instructions:  159000002 cycles:  137590431 heartbeat IPC: 0.90609 cumulative IPC: 0.67427 (Simulation time: 0 hr 3 min 14 sec) 
Heartbeat CPU  0 instructions:  160000000 cycles:  138699961 heartbeat IPC: 0.90128 cumulative IPC: 0.67711 (Simulation time: 0 hr 3 min 15 sec) 
Heartbeat CPU  0 instructions:  161000000 cycles:  139805364 heartbeat IPC: 0.90465 cumulative IPC: 0.67991 (Simulation time: 0 hr 3 min 17 sec) 
Heartbeat CPU  0 instructions:  162000002 cycles:  140919632 heartbeat IPC: 0.89745 cumulative IPC: 0.68258 (Simulation time: 0 hr 3 min 18 sec) 
Heartbeat CPU  0 instructions:  163000000 cycles:  142030010 heartbeat IPC: 0.90059 cumulative IPC: 0.68521 (Simulation time: 0 hr 3 min 20 sec) 
Heartbeat CPU  0 instructions:  164000000 cycles:  143141118 heartbeat IPC: 0.90000 cumulative IPC: 0.68778 (Simulation time: 0 hr 3 min 21 sec) 
Heartbeat CPU  0 instructions:  165000001 cycles:  144246685 heartbeat IPC: 0.90451 cumulative IPC: 0.69032 (Simulation time: 0 hr 3 min 23 sec) 
Heartbeat CPU  0 instructions:  166000003 cycles:  145362016 heartbeat IPC: 0.89660 cumulative IPC: 0.69274 (Simulation time: 0 hr 3 min 24 sec) 
Heartbeat CPU  0 instructions:  167000001 cycles:  146471735 heartbeat IPC: 0.90113 cumulative IPC: 0.69514 (Simulation time: 0 hr 3 min 25 sec) 
Heartbeat CPU  0 instructions:  168000000 cycles:  147593650 heartbeat IPC: 0.89133 cumulative IPC: 0.69739 (Simulation time: 0 hr 3 min 27 sec) 
Heartbeat CPU  0 instructions:  169000000 cycles:  148715941 heartbeat IPC: 0.89103 cumulative IPC: 0.69960 (Simulation time: 0 hr 3 min 28 sec) 
Heartbeat CPU  0 instructions:  170000003 cycles:  149936146 heartbeat IPC: 0.81954 cumulative IPC: 0.70106 (Simulation time: 0 hr 3 min 30 sec) 
Heartbeat CPU  0 instructions:  171000001 cycles:  151186486 heartbeat IPC: 0.79978 cumulative IPC: 0.70228 (Simulation time: 0 hr 3 min 31 sec) 
Heartbeat CPU  0 instructions:  172000000 cycles:  152443459 heartbeat IPC: 0.79556 cumulative IPC: 0.70343 (Simulation time: 0 hr 3 min 33 sec) 
Heartbeat CPU  0 instructions:  173000001 cycles:  153697279 heartbeat IPC: 0.79756 cumulative IPC: 0.70457 (Simulation time: 0 hr 3 min 34 sec) 
Heartbeat CPU  0 instructions:  174000000 cycles:  154947576 heartbeat IPC: 0.79981 cumulative IPC: 0.70571 (Simulation time: 0 hr 3 min 36 sec) 
Heartbeat CPU  0 instructions:  175000002 cycles:  156206127 heartbeat IPC: 0.79457 cumulative IPC: 0.70676 (Simulation time: 0 hr 3 min 37 sec) 
Heartbeat CPU  0 instructions:  176000000 cycles:  157460424 heartbeat IPC: 0.79726 cumulative IPC: 0.70782 (Simulation time: 0 hr 3 min 39 sec) 
Heartbeat CPU  0 instructions:  177000002 cycles:  158713831 heartbeat IPC: 0.79783 cumulative IPC: 0.70885 (Simulation time: 0 hr 3 min 40 sec) 
Heartbeat CPU  0 instructions:  178000000 cycles:  159970316 heartbeat IPC: 0.79587 cumulative IPC: 0.70985 (Simulation time: 0 hr 3 min 42 sec) 
Heartbeat CPU  0 instructions:  179000003 cycles:  161227474 heartbeat IPC: 0.79545 cumulative IPC: 0.71082 (Simulation time: 0 hr 3 min 43 sec) 
Heartbeat CPU  0 instructions:  180000000 cycles:  162486595 heartbeat IPC: 0.79420 cumulative IPC: 0.71175 (Simulation time: 0 hr 3 min 45 sec) 
Heartbeat CPU  0 instructions:  181000000 cycles:  163743681 heartbeat IPC: 0.79549 cumulative IPC: 0.71268 (Simulation time: 0 hr 3 min 47 sec) 
Heartbeat CPU  0 instructions:  182000001 cycles:  165001259 heartbeat IPC: 0.79518 cumulative IPC: 0.71358 (Simulation time: 0 hr 3 min 48 sec) 
Heartbeat CPU  0 instructions:  183000000 cycles:  166258191 heartbeat IPC: 0.79559 cumulative IPC: 0.71447 (Simulation time: 0 hr 3 min 50 sec) 
Heartbeat CPU  0 instructions:  184000000 cycles:  167517595 heartbeat IPC: 0.79403 cumulative IPC: 0.71532 (Simulation time: 0 hr 3 min 51 sec) 
Heartbeat CPU  0 instructions:  185000001 cycles:  168773025 heartbeat IPC: 0.79654 cumulative IPC: 0.71618 (Simulation time: 0 hr 3 min 53 sec) 
Heartbeat CPU  0 instructions:  186000002 cycles:  170030575 heartbeat IPC: 0.79520 cumulative IPC: 0.71701 (Simulation time: 0 hr 3 min 54 sec) 
Heartbeat CPU  0 instructions:  187000000 cycles:  171282089 heartbeat IPC: 0.79903 cumulative IPC: 0.71786 (Simulation time: 0 hr 3 min 56 sec) 
Heartbeat CPU  0 instructions:  188000000 cycles:  172540419 heartbeat IPC: 0.79470 cumulative IPC: 0.71865 (Simulation time: 0 hr 3 min 57 sec) 
Heartbeat CPU  0 instructions:  189000001 cycles:  173798172 heartbeat IPC: 0.79507 cumulative IPC: 0.71942 (Simulation time: 0 hr 3 min 59 sec) 
Heartbeat CPU  0 instructions:  190000000 cycles:  175055293 heartbeat IPC: 0.79547 cumulative IPC: 0.72019 (Simulation time: 0 hr 4 min 0 sec) 
Heartbeat CPU  0 instructions:  191000000 cycles:  176322028 heartbeat IPC: 0.78943 cumulative IPC: 0.72088 (Simulation time: 0 hr 4 min 2 sec) 
Heartbeat CPU  0 instructions:  192000000 cycles:  177925374 heartbeat IPC: 0.62370 cumulative IPC: 0.71966 (Simulation time: 0 hr 4 min 4 sec) 
Heartbeat CPU  0 instructions:  193000000 cycles:  180422300 heartbeat IPC: 0.40049 cumulative IPC: 0.71355 (Simulation time: 0 hr 4 min 6 sec) 
Heartbeat CPU  0 instructions:  194000000 cycles:  182910917 heartbeat IPC: 0.40183 cumulative IPC: 0.70771 (Simulation time: 0 hr 4 min 8 sec) 
Heartbeat CPU  0 instructions:  195000000 cycles:  185438031 heartbeat IPC: 0.39571 cumulative IPC: 0.70188 (Simulation time: 0 hr 4 min 10 sec) 
Heartbeat CPU  0 instructions:  196000000 cycles:  187932757 heartbeat IPC: 0.40085 cumulative IPC: 0.69644 (Simulation time: 0 hr 4 min 13 sec) 
Heartbeat CPU  0 instructions:  197000000 cycles:  190418393 heartbeat IPC: 0.40231 cumulative IPC: 0.69123 (Simulation time: 0 hr 4 min 15 sec) 
Heartbeat CPU  0 instructions:  198000000 cycles:  192911135 heartbeat IPC: 0.40116 cumulative IPC: 0.68616 (Simulation time: 0 hr 4 min 17 sec) 
Heartbeat CPU  0 instructions:  199000000 cycles:  195406784 heartbeat IPC: 0.40070 cumulative IPC: 0.68126 (Simulation time: 0 hr 4 min 19 sec) 
Heartbeat CPU  0 instructions:  200000000 cycles:  197889216 heartbeat IPC: 0.40283 cumulative IPC: 0.67658 (Simulation time: 0 hr 4 min 22 sec) 
Finished CPU 0 instructions: 100000000 cycles: 147801328 cumulative IPC: 0.67658 (Simulation time: 0 hr 4 min 22 sec) 

ChampSim completed all CPUs

[ROI Statistics]
Core_0_instructions 100000000
Core_0_cycles 147801328
Core_0_IPC 0.67658

Core_0_branch_prediction_accuracy 99.58952
Core_0_branch_MPKI 0.70683
Core_0_average_ROB_occupancy_at_mispredict 218.78529

Core_0_L1D_total_access 21111000
Core_0_L1D_total_hit 18534763
Core_0_L1D_total_miss 2576237
Core_0_L1D_loads 10185844
Core_0_L1D_load_hit 8182827
Core_0_L1D_load_miss 2003017
Core_0_L1D_RFOs 3492976
Core_0_L1D_RFO_hit 3492956
Core_0_L1D_RFO_miss 20
Core_0_L1D_prefetches 7432180
Core_0_L1D_prefetch_hit 6858980
Core_0_L1D_prefetch_miss 573200
Core_0_L1D_writebacks 0
Core_0_L1D_writeback_hit 0
Core_0_L1D_writeback_miss 0
Core_0_L1D_prefetch_requested 41810322
Core_0_L1D_prefetch_issued 41542895
Core_0_L1D_prefetch_useful 2995965
Core_0_L1D_prefetch_useless 30
Core_0_L1D_prefetch_late 1873505
Core_0_L1D_average_miss_latency 89075337.81041

Core_0_L1I_total_access 32224254
Core_0_L1I_total_hit 32224253
Core_0_L1I_total_miss 1
Core_0_L1I_loads 32224254
Core_0_L1I_load_hit 32224253
Core_0_L1I_load_miss 1
Core_0_L1I_RFOs 0
Core_0_L1I_RFO_hit 0
Core_0_L1I_RFO_miss 0
Core_0_L1I_prefetches 0
Core_0_L1I_prefetch_hit 0
Core_0_L1I_prefetch_miss 0
Core_0_L1I_writebacks 0
Core_0_L1I_writeback_hit 0
Core_0_L1I_writeback_miss 0
Core_0_L1I_prefetch_requested 0
Core_0_L1I_prefetch_issued 0
Core_0_L1I_prefetch_useful 0
Core_0_L1I_prefetch_useless 0
Core_0_L1I_prefetch_late 0
Core_0_L1I_average_miss_latency 261.00000

Core_0_L2C_total_access 3889004
Core_0_L2C_total_hit 1312760
Core_0_L2C_total_miss 2576244
Core_0_L2C_loads 154196
Core_0_L2C_load_hit 1256
Core_0_L2C_load_miss 152940
Core_0_L2C_RFOs 20
Core_0_L2C_RFO_hit 0
Core_0_L2C_RFO_miss 20
Core_0_L2C_prefetches 2784642
Core_0_L2C_prefetch_hit 361358
Core_0_L2C_prefetch_miss 2423284
Core_0_L2C_writebacks 950146
Core_0_L2C_writeback_hit 950146
Core_0_L2C_writeback_miss 0
Core_0_L2C_prefetch_requested 9471204
Core_0_L2C_prefetch_issued 9471204
Core_0_L2C_prefetch_useful 157012
Core_0_L2C_prefetch_useless 4862183
Core_0_L2C_prefetch_late 63687
Core_0_L2C_average_miss_latency 182.96732

Core_0_LLC_total_access 3946091
Core_0_LLC_total_hit 1121697
Core_0_LLC_total_miss 2824394
Core_0_LLC_loads 89253
Core_0_LLC_load_hit 1617
Core_0_LLC_load_miss 87636
Core_0_LLC_RFOs 20
Core_0_LLC_RFO_hit 0
Core_0_LLC_RFO_miss 20
Core_0_LLC_prefetches 2914115
Core_0_LLC_prefetch_hit 425470
Core_0_LLC_prefetch_miss 2488645
Core_0_LLC_writebacks 942703
Core_0_LLC_writeback_hit 694610
Core_0_LLC_writeback_miss 248093
Core_0_LLC_prefetch_requested 4853880
Core_0_LLC_prefetch_issued 4774034
Core_0_LLC_prefetch_useful 1622
Core_0_LLC_prefetch_useless 5061853
Core_0_LLC_prefetch_late 5527
Core_0_LLC_average_miss_latency 169.01319

Core_0_major_page_fault 0
Core_0_minor_page_fault 8199

CPU 0 L1D next line prefetcher final stats
CPU 0 L2C PC-based stride prefetcher final stats
LLC Next Line Prefetcher Final Stats: none
Channel_0_RQ_row_buffer_hit 1424542
Channel_0_RQ_row_buffer_miss 1151759
Channel_0_WQ_row_buffer_hit 195689
Channel_0_WQ_row_buffer_miss 722452
Channel_0_WQ_full 0
Channel_0_dbus_congested 2490302

avg_congested_cycle 11
