*************************************************
   ChampSim Multicore Out-of-Order Simulator
   Last compiled: Dec 21 2023 19:35:39
*************************************************

trace_0 ./test_trace/462.libquantum-714B.champsimtrace.xz
CPU 0 L2C IP-based stride prefetcher
Initialize SHIP state
warmup_instructions 100000000
simulation_instructions 100000000
champsim_seed 222

num_cpus 1
cpu_freq 4000
dram_io_freq 2400
page_size 4096
block_size 64
max_read_per_cycle 8
max_fill_per_cycle 1
dram_channels 1
dram_ranks 1
dram_banks 8
dram_rows 65536
dram_columns 128
dram_row_size 8
dram_size 4096
dram_pages 1048576

fetch_width 6
decode_width 6
exec_width 4
lq_width 2
sq_width 2
retire_width 4
scheduler_size 128
branch_mispredict_penalty 20
rob_size 256
lq_size 72
sq_size 56
num_instr_destinations_sparc 4
num_instr_destinations 2
num_instr_sources 4

itlb_set 16
itlb_way 8
itlb_rq_size 16
itlb_wq_size 16
itlb_pq_size 0
itlb_mshr_size 8
itlb_latency 1

dtlb_set 16
dtlb_way 4
dtlb_rq_size 16
dtlb_wq_size 16
dtlb_pq_size 0
dtlb_mshr_size 8
dtlb_latency 1

stlb_set 128
stlb_way 12
stlb_rq_size 32
stlb_wq_size 32
stlb_pq_size 0
stlb_mshr_size 16
stlb_latency 8

l1i_size 32
l1i_set 64
l1i_way 8
l1i_rq_size 64
l1i_wq_size 64
l1i_pq_size 8
l1i_mshr_size 8
l1i_latency 1

l1d_size 32
l1d_set 64
l1d_way 8
l1d_rq_size 64
l1d_wq_size 64
l1d_pq_size 8
l1d_mshr_size 16
l1d_latency 4

l2c_size 512
l2c_set 1024
l2c_way 8
l2c_rq_size 32
l2c_wq_size 32
l2c_pq_size 16
l2c_mshr_size 32
l2c_latency 10

llc_size 2048
llc_set 2048
llc_way 16
llc_rq_size 32
llc_wq_size 32
llc_pq_size 32
llc_mshr_size 64
llc_latency 20

dram_channel_width 8
dram_wq_size 64
dram_rq_size 64
tRP 15
tRCD 15
tCAS 12.5
dram_dbus_turn_around_time 30
dram_write_high_wm 56
dram_write_low_wm 48
min_dram_writes_per_switch 16
dram_mtps 2400
dram_dbus_return_time 13


Heartbeat CPU  0 instructions:    1000000 cycles:     548321 heartbeat IPC: 1.82375 cumulative IPC: 1.82375 (Simulation time: 0 hr 0 min 1 sec) 
Heartbeat CPU  0 instructions:    2000003 cycles:    1096778 heartbeat IPC: 1.82330 cumulative IPC: 1.82353 (Simulation time: 0 hr 0 min 2 sec) 
Heartbeat CPU  0 instructions:    3000002 cycles:    1645231 heartbeat IPC: 1.82331 cumulative IPC: 1.82345 (Simulation time: 0 hr 0 min 2 sec) 
Heartbeat CPU  0 instructions:    4000000 cycles:    2193880 heartbeat IPC: 1.82266 cumulative IPC: 1.82325 (Simulation time: 0 hr 0 min 3 sec) 
Heartbeat CPU  0 instructions:    5000000 cycles:    2742419 heartbeat IPC: 1.82302 cumulative IPC: 1.82321 (Simulation time: 0 hr 0 min 4 sec) 
Heartbeat CPU  0 instructions:    6000000 cycles:    3290903 heartbeat IPC: 1.82321 cumulative IPC: 1.82321 (Simulation time: 0 hr 0 min 5 sec) 
Heartbeat CPU  0 instructions:    7000000 cycles:    3839414 heartbeat IPC: 1.82312 cumulative IPC: 1.82319 (Simulation time: 0 hr 0 min 6 sec) 
Heartbeat CPU  0 instructions:    8000000 cycles:    4387898 heartbeat IPC: 1.82321 cumulative IPC: 1.82320 (Simulation time: 0 hr 0 min 6 sec) 
Heartbeat CPU  0 instructions:    9000002 cycles:    4916735 heartbeat IPC: 1.89095 cumulative IPC: 1.83048 (Simulation time: 0 hr 0 min 8 sec) 
Heartbeat CPU  0 instructions:   10000002 cycles:    5439041 heartbeat IPC: 1.91459 cumulative IPC: 1.83856 (Simulation time: 0 hr 0 min 9 sec) 
Heartbeat CPU  0 instructions:   11000001 cycles:    5961378 heartbeat IPC: 1.91447 cumulative IPC: 1.84521 (Simulation time: 0 hr 0 min 10 sec) 
Heartbeat CPU  0 instructions:   12000000 cycles:    6483687 heartbeat IPC: 1.91457 cumulative IPC: 1.85080 (Simulation time: 0 hr 0 min 12 sec) 
Heartbeat CPU  0 instructions:   13000000 cycles:    7006045 heartbeat IPC: 1.91440 cumulative IPC: 1.85554 (Simulation time: 0 hr 0 min 13 sec) 
Heartbeat CPU  0 instructions:   14000000 cycles:    7528351 heartbeat IPC: 1.91459 cumulative IPC: 1.85964 (Simulation time: 0 hr 0 min 15 sec) 
Heartbeat CPU  0 instructions:   15000003 cycles:    8050685 heartbeat IPC: 1.91449 cumulative IPC: 1.86320 (Simulation time: 0 hr 0 min 16 sec) 
Heartbeat CPU  0 instructions:   16000000 cycles:    8572992 heartbeat IPC: 1.91458 cumulative IPC: 1.86633 (Simulation time: 0 hr 0 min 17 sec) 
Heartbeat CPU  0 instructions:   17000000 cycles:    9095345 heartbeat IPC: 1.91441 cumulative IPC: 1.86909 (Simulation time: 0 hr 0 min 19 sec) 
Heartbeat CPU  0 instructions:   18000000 cycles:    9617654 heartbeat IPC: 1.91458 cumulative IPC: 1.87156 (Simulation time: 0 hr 0 min 20 sec) 
Heartbeat CPU  0 instructions:   19000003 cycles:   10139988 heartbeat IPC: 1.91449 cumulative IPC: 1.87377 (Simulation time: 0 hr 0 min 22 sec) 
Heartbeat CPU  0 instructions:   20000000 cycles:   10662299 heartbeat IPC: 1.91456 cumulative IPC: 1.87577 (Simulation time: 0 hr 0 min 23 sec) 
Heartbeat CPU  0 instructions:   21000000 cycles:   11184654 heartbeat IPC: 1.91441 cumulative IPC: 1.87757 (Simulation time: 0 hr 0 min 24 sec) 
Heartbeat CPU  0 instructions:   22000000 cycles:   11706967 heartbeat IPC: 1.91456 cumulative IPC: 1.87922 (Simulation time: 0 hr 0 min 26 sec) 
Heartbeat CPU  0 instructions:   23000000 cycles:   12220918 heartbeat IPC: 1.94571 cumulative IPC: 1.88202 (Simulation time: 0 hr 0 min 27 sec) 
Heartbeat CPU  0 instructions:   24000000 cycles:   12640329 heartbeat IPC: 2.38430 cumulative IPC: 1.89868 (Simulation time: 0 hr 0 min 28 sec) 
Heartbeat CPU  0 instructions:   25000000 cycles:   13059733 heartbeat IPC: 2.38434 cumulative IPC: 1.91428 (Simulation time: 0 hr 0 min 29 sec) 
Heartbeat CPU  0 instructions:   26000000 cycles:   13479154 heartbeat IPC: 2.38424 cumulative IPC: 1.92890 (Simulation time: 0 hr 0 min 29 sec) 
Heartbeat CPU  0 instructions:   27000000 cycles:   13898588 heartbeat IPC: 2.38417 cumulative IPC: 1.94264 (Simulation time: 0 hr 0 min 30 sec) 
Heartbeat CPU  0 instructions:   28000000 cycles:   14318023 heartbeat IPC: 2.38416 cumulative IPC: 1.95558 (Simulation time: 0 hr 0 min 31 sec) 
Heartbeat CPU  0 instructions:   29000001 cycles:   14737430 heartbeat IPC: 2.38432 cumulative IPC: 1.96778 (Simulation time: 0 hr 0 min 32 sec) 
Heartbeat CPU  0 instructions:   30000003 cycles:   15156833 heartbeat IPC: 2.38435 cumulative IPC: 1.97931 (Simulation time: 0 hr 0 min 32 sec) 
Heartbeat CPU  0 instructions:   31000001 cycles:   15576258 heartbeat IPC: 2.38421 cumulative IPC: 1.99021 (Simulation time: 0 hr 0 min 33 sec) 
Heartbeat CPU  0 instructions:   32000000 cycles:   15995715 heartbeat IPC: 2.38403 cumulative IPC: 2.00054 (Simulation time: 0 hr 0 min 34 sec) 
Heartbeat CPU  0 instructions:   33000003 cycles:   16415115 heartbeat IPC: 2.38437 cumulative IPC: 2.01034 (Simulation time: 0 hr 0 min 35 sec) 
Heartbeat CPU  0 instructions:   34000000 cycles:   16834509 heartbeat IPC: 2.38439 cumulative IPC: 2.01966 (Simulation time: 0 hr 0 min 35 sec) 
Heartbeat CPU  0 instructions:   35000002 cycles:   17253925 heartbeat IPC: 2.38427 cumulative IPC: 2.02852 (Simulation time: 0 hr 0 min 36 sec) 
Heartbeat CPU  0 instructions:   36000000 cycles:   17673366 heartbeat IPC: 2.38412 cumulative IPC: 2.03696 (Simulation time: 0 hr 0 min 37 sec) 
Heartbeat CPU  0 instructions:   37000000 cycles:   18092811 heartbeat IPC: 2.38410 cumulative IPC: 2.04501 (Simulation time: 0 hr 0 min 38 sec) 
Heartbeat CPU  0 instructions:   38000002 cycles:   18512211 heartbeat IPC: 2.38436 cumulative IPC: 2.05270 (Simulation time: 0 hr 0 min 38 sec) 
Heartbeat CPU  0 instructions:   39000000 cycles:   18931622 heartbeat IPC: 2.38429 cumulative IPC: 2.06005 (Simulation time: 0 hr 0 min 39 sec) 
Heartbeat CPU  0 instructions:   40000000 cycles:   19351039 heartbeat IPC: 2.38426 cumulative IPC: 2.06707 (Simulation time: 0 hr 0 min 40 sec) 
Heartbeat CPU  0 instructions:   41000001 cycles:   19770504 heartbeat IPC: 2.38399 cumulative IPC: 2.07380 (Simulation time: 0 hr 0 min 41 sec) 
Heartbeat CPU  0 instructions:   42000003 cycles:   20189911 heartbeat IPC: 2.38432 cumulative IPC: 2.08025 (Simulation time: 0 hr 0 min 41 sec) 
Heartbeat CPU  0 instructions:   43000001 cycles:   20609313 heartbeat IPC: 2.38434 cumulative IPC: 2.08644 (Simulation time: 0 hr 0 min 42 sec) 
Heartbeat CPU  0 instructions:   44000000 cycles:   21028713 heartbeat IPC: 2.38436 cumulative IPC: 2.09238 (Simulation time: 0 hr 0 min 43 sec) 
Heartbeat CPU  0 instructions:   45000001 cycles:   21448147 heartbeat IPC: 2.38417 cumulative IPC: 2.09808 (Simulation time: 0 hr 0 min 44 sec) 
Heartbeat CPU  0 instructions:   46000001 cycles:   21867591 heartbeat IPC: 2.38411 cumulative IPC: 2.10357 (Simulation time: 0 hr 0 min 44 sec) 
Heartbeat CPU  0 instructions:   47000000 cycles:   22407527 heartbeat IPC: 1.85207 cumulative IPC: 2.09751 (Simulation time: 0 hr 0 min 45 sec) 
Heartbeat CPU  0 instructions:   48000000 cycles:   22949780 heartbeat IPC: 1.84416 cumulative IPC: 2.09152 (Simulation time: 0 hr 0 min 46 sec) 
Heartbeat CPU  0 instructions:   49000000 cycles:   23492039 heartbeat IPC: 1.84414 cumulative IPC: 2.08581 (Simulation time: 0 hr 0 min 47 sec) 
Heartbeat CPU  0 instructions:   50000003 cycles:   24034281 heartbeat IPC: 1.84420 cumulative IPC: 2.08036 (Simulation time: 0 hr 0 min 48 sec) 
Heartbeat CPU  0 instructions:   51000002 cycles:   24576537 heartbeat IPC: 1.84415 cumulative IPC: 2.07515 (Simulation time: 0 hr 0 min 48 sec) 
Heartbeat CPU  0 instructions:   52000000 cycles:   25118783 heartbeat IPC: 1.84418 cumulative IPC: 2.07016 (Simulation time: 0 hr 0 min 49 sec) 
Heartbeat CPU  0 instructions:   53000000 cycles:   25661029 heartbeat IPC: 1.84418 cumulative IPC: 2.06539 (Simulation time: 0 hr 0 min 50 sec) 
Heartbeat CPU  0 instructions:   54000003 cycles:   26203280 heartbeat IPC: 1.84417 cumulative IPC: 2.06081 (Simulation time: 0 hr 0 min 51 sec) 
Heartbeat CPU  0 instructions:   55000002 cycles:   26745538 heartbeat IPC: 1.84414 cumulative IPC: 2.05642 (Simulation time: 0 hr 0 min 52 sec) 
Heartbeat CPU  0 instructions:   56000000 cycles:   27287787 heartbeat IPC: 1.84417 cumulative IPC: 2.05220 (Simulation time: 0 hr 0 min 53 sec) 
Heartbeat CPU  0 instructions:   57000000 cycles:   27830038 heartbeat IPC: 1.84416 cumulative IPC: 2.04815 (Simulation time: 0 hr 0 min 53 sec) 
Heartbeat CPU  0 instructions:   58000000 cycles:   28372299 heartbeat IPC: 1.84413 cumulative IPC: 2.04425 (Simulation time: 0 hr 0 min 54 sec) 
Heartbeat CPU  0 instructions:   59000000 cycles:   28914556 heartbeat IPC: 1.84414 cumulative IPC: 2.04049 (Simulation time: 0 hr 0 min 55 sec) 
Heartbeat CPU  0 instructions:   60000000 cycles:   29456809 heartbeat IPC: 1.84416 cumulative IPC: 2.03688 (Simulation time: 0 hr 0 min 56 sec) 
Heartbeat CPU  0 instructions:   61000003 cycles:   29999060 heartbeat IPC: 1.84417 cumulative IPC: 2.03340 (Simulation time: 0 hr 0 min 57 sec) 
Heartbeat CPU  0 instructions:   62000002 cycles:   30541317 heartbeat IPC: 1.84414 cumulative IPC: 2.03004 (Simulation time: 0 hr 0 min 57 sec) 
Heartbeat CPU  0 instructions:   63000001 cycles:   31083562 heartbeat IPC: 1.84418 cumulative IPC: 2.02679 (Simulation time: 0 hr 0 min 58 sec) 
Heartbeat CPU  0 instructions:   64000000 cycles:   31625803 heartbeat IPC: 1.84420 cumulative IPC: 2.02366 (Simulation time: 0 hr 0 min 59 sec) 
Heartbeat CPU  0 instructions:   65000003 cycles:   32168065 heartbeat IPC: 1.84413 cumulative IPC: 2.02064 (Simulation time: 0 hr 1 min 0 sec) 
Heartbeat CPU  0 instructions:   66000002 cycles:   32710316 heartbeat IPC: 1.84416 cumulative IPC: 2.01771 (Simulation time: 0 hr 1 min 1 sec) 
Heartbeat CPU  0 instructions:   67000001 cycles:   33252563 heartbeat IPC: 1.84418 cumulative IPC: 2.01488 (Simulation time: 0 hr 1 min 2 sec) 
Heartbeat CPU  0 instructions:   68000000 cycles:   33794993 heartbeat IPC: 1.84355 cumulative IPC: 2.01213 (Simulation time: 0 hr 1 min 2 sec) 
Heartbeat CPU  0 instructions:   69000000 cycles:   34337956 heartbeat IPC: 1.84175 cumulative IPC: 2.00944 (Simulation time: 0 hr 1 min 3 sec) 
Heartbeat CPU  0 instructions:   70000000 cycles:   34860104 heartbeat IPC: 1.91517 cumulative IPC: 2.00803 (Simulation time: 0 hr 1 min 5 sec) 
Heartbeat CPU  0 instructions:   71000003 cycles:   35380194 heartbeat IPC: 1.92275 cumulative IPC: 2.00677 (Simulation time: 0 hr 1 min 6 sec) 
Heartbeat CPU  0 instructions:   72000000 cycles:   35900246 heartbeat IPC: 1.92288 cumulative IPC: 2.00556 (Simulation time: 0 hr 1 min 7 sec) 
Heartbeat CPU  0 instructions:   73000002 cycles:   36420349 heartbeat IPC: 1.92270 cumulative IPC: 2.00437 (Simulation time: 0 hr 1 min 9 sec) 
Heartbeat CPU  0 instructions:   74000002 cycles:   36940409 heartbeat IPC: 1.92286 cumulative IPC: 2.00323 (Simulation time: 0 hr 1 min 10 sec) 
Heartbeat CPU  0 instructions:   75000001 cycles:   37460499 heartbeat IPC: 1.92274 cumulative IPC: 2.00211 (Simulation time: 0 hr 1 min 12 sec) 
Heartbeat CPU  0 instructions:   76000000 cycles:   37980559 heartbeat IPC: 1.92285 cumulative IPC: 2.00102 (Simulation time: 0 hr 1 min 13 sec) 
Heartbeat CPU  0 instructions:   77000001 cycles:   38500674 heartbeat IPC: 1.92265 cumulative IPC: 1.99997 (Simulation time: 0 hr 1 min 14 sec) 
Heartbeat CPU  0 instructions:   78000001 cycles:   39020742 heartbeat IPC: 1.92283 cumulative IPC: 1.99894 (Simulation time: 0 hr 1 min 16 sec) 
Heartbeat CPU  0 instructions:   79000000 cycles:   39540832 heartbeat IPC: 1.92274 cumulative IPC: 1.99793 (Simulation time: 0 hr 1 min 17 sec) 
Heartbeat CPU  0 instructions:   80000000 cycles:   40060890 heartbeat IPC: 1.92286 cumulative IPC: 1.99696 (Simulation time: 0 hr 1 min 19 sec) 
Heartbeat CPU  0 instructions:   81000000 cycles:   40580995 heartbeat IPC: 1.92269 cumulative IPC: 1.99601 (Simulation time: 0 hr 1 min 20 sec) 
Heartbeat CPU  0 instructions:   82000000 cycles:   41101057 heartbeat IPC: 1.92285 cumulative IPC: 1.99508 (Simulation time: 0 hr 1 min 21 sec) 
Heartbeat CPU  0 instructions:   83000003 cycles:   41621131 heartbeat IPC: 1.92281 cumulative IPC: 1.99418 (Simulation time: 0 hr 1 min 23 sec) 
Heartbeat CPU  0 instructions:   84000000 cycles:   42117740 heartbeat IPC: 2.01365 cumulative IPC: 1.99441 (Simulation time: 0 hr 1 min 24 sec) 
Heartbeat CPU  0 instructions:   85000000 cycles:   42537144 heartbeat IPC: 2.38434 cumulative IPC: 1.99825 (Simulation time: 0 hr 1 min 25 sec) 
Heartbeat CPU  0 instructions:   86000001 cycles:   42956550 heartbeat IPC: 2.38433 cumulative IPC: 2.00202 (Simulation time: 0 hr 1 min 26 sec) 
Heartbeat CPU  0 instructions:   87000003 cycles:   43375964 heartbeat IPC: 2.38428 cumulative IPC: 2.00572 (Simulation time: 0 hr 1 min 26 sec) 
Heartbeat CPU  0 instructions:   88000000 cycles:   43795436 heartbeat IPC: 2.38394 cumulative IPC: 2.00934 (Simulation time: 0 hr 1 min 27 sec) 
Heartbeat CPU  0 instructions:   89000001 cycles:   44214844 heartbeat IPC: 2.38432 cumulative IPC: 2.01290 (Simulation time: 0 hr 1 min 28 sec) 
Heartbeat CPU  0 instructions:   90000001 cycles:   44634245 heartbeat IPC: 2.38435 cumulative IPC: 2.01639 (Simulation time: 0 hr 1 min 29 sec) 
Heartbeat CPU  0 instructions:   91000000 cycles:   45053641 heartbeat IPC: 2.38438 cumulative IPC: 2.01981 (Simulation time: 0 hr 1 min 29 sec) 
Heartbeat CPU  0 instructions:   92000000 cycles:   45473076 heartbeat IPC: 2.38416 cumulative IPC: 2.02318 (Simulation time: 0 hr 1 min 30 sec) 
Heartbeat CPU  0 instructions:   93000003 cycles:   45892528 heartbeat IPC: 2.38407 cumulative IPC: 2.02647 (Simulation time: 0 hr 1 min 31 sec) 
Heartbeat CPU  0 instructions:   94000000 cycles:   46311929 heartbeat IPC: 2.38435 cumulative IPC: 2.02971 (Simulation time: 0 hr 1 min 32 sec) 
Heartbeat CPU  0 instructions:   95000002 cycles:   46731327 heartbeat IPC: 2.38437 cumulative IPC: 2.03290 (Simulation time: 0 hr 1 min 32 sec) 
Heartbeat CPU  0 instructions:   96000000 cycles:   47150746 heartbeat IPC: 2.38425 cumulative IPC: 2.03602 (Simulation time: 0 hr 1 min 33 sec) 
Heartbeat CPU  0 instructions:   97000000 cycles:   47570214 heartbeat IPC: 2.38397 cumulative IPC: 2.03909 (Simulation time: 0 hr 1 min 34 sec) 
Heartbeat CPU  0 instructions:   98000000 cycles:   47989626 heartbeat IPC: 2.38429 cumulative IPC: 2.04211 (Simulation time: 0 hr 1 min 35 sec) 
Heartbeat CPU  0 instructions:   99000003 cycles:   48409032 heartbeat IPC: 2.38433 cumulative IPC: 2.04507 (Simulation time: 0 hr 1 min 35 sec) 
Heartbeat CPU  0 instructions:  100000000 cycles:   48828436 heartbeat IPC: 2.38433 cumulative IPC: 2.04799 (Simulation time: 0 hr 1 min 36 sec) 

Warmup complete CPU  0 instructions:  100000001 cycles:   48828438 (Simulation time: 0 hr 1 min 36 sec) 

Heartbeat CPU  0 instructions:  101000003 cycles:   49876827 heartbeat IPC: 0.95385 cumulative IPC: 0.95385 (Simulation time: 0 hr 1 min 38 sec) 
Heartbeat CPU  0 instructions:  102000003 cycles:   50924277 heartbeat IPC: 0.95470 cumulative IPC: 0.95427 (Simulation time: 0 hr 1 min 39 sec) 
Heartbeat CPU  0 instructions:  103000001 cycles:   51968324 heartbeat IPC: 0.95781 cumulative IPC: 0.95545 (Simulation time: 0 hr 1 min 40 sec) 
Heartbeat CPU  0 instructions:  104000000 cycles:   53008199 heartbeat IPC: 0.96165 cumulative IPC: 0.95699 (Simulation time: 0 hr 1 min 42 sec) 
Heartbeat CPU  0 instructions:  105000000 cycles:   54058762 heartbeat IPC: 0.95187 cumulative IPC: 0.95596 (Simulation time: 0 hr 1 min 43 sec) 
Heartbeat CPU  0 instructions:  106000002 cycles:   54987191 heartbeat IPC: 1.07709 cumulative IPC: 0.97422 (Simulation time: 0 hr 1 min 44 sec) 
Heartbeat CPU  0 instructions:  107000000 cycles:   55844420 heartbeat IPC: 1.16655 cumulative IPC: 0.99772 (Simulation time: 0 hr 1 min 46 sec) 
Heartbeat CPU  0 instructions:  108000000 cycles:   57035809 heartbeat IPC: 0.83936 cumulative IPC: 0.97473 (Simulation time: 0 hr 1 min 47 sec) 
Heartbeat CPU  0 instructions:  109000000 cycles:   58268376 heartbeat IPC: 0.81131 cumulative IPC: 0.95340 (Simulation time: 0 hr 1 min 49 sec) 
Heartbeat CPU  0 instructions:  110000001 cycles:   59495308 heartbeat IPC: 0.81504 cumulative IPC: 0.93748 (Simulation time: 0 hr 1 min 50 sec) 
Heartbeat CPU  0 instructions:  111000001 cycles:   60727892 heartbeat IPC: 0.81130 cumulative IPC: 0.92441 (Simulation time: 0 hr 1 min 52 sec) 
Heartbeat CPU  0 instructions:  112000000 cycles:   61957599 heartbeat IPC: 0.81320 cumulative IPC: 0.91400 (Simulation time: 0 hr 1 min 53 sec) 
Heartbeat CPU  0 instructions:  113000002 cycles:   63186973 heartbeat IPC: 0.81342 cumulative IPC: 0.90538 (Simulation time: 0 hr 1 min 54 sec) 
Heartbeat CPU  0 instructions:  114000002 cycles:   64417074 heartbeat IPC: 0.81294 cumulative IPC: 0.89809 (Simulation time: 0 hr 1 min 56 sec) 
Heartbeat CPU  0 instructions:  115000003 cycles:   65647484 heartbeat IPC: 0.81274 cumulative IPC: 0.89185 (Simulation time: 0 hr 1 min 57 sec) 
Heartbeat CPU  0 instructions:  116000000 cycles:   66876769 heartbeat IPC: 0.81348 cumulative IPC: 0.88651 (Simulation time: 0 hr 1 min 59 sec) 
Heartbeat CPU  0 instructions:  117000000 cycles:   68108453 heartbeat IPC: 0.81190 cumulative IPC: 0.88174 (Simulation time: 0 hr 2 min 0 sec) 
Heartbeat CPU  0 instructions:  118000000 cycles:   69336390 heartbeat IPC: 0.81437 cumulative IPC: 0.87771 (Simulation time: 0 hr 2 min 2 sec) 
Heartbeat CPU  0 instructions:  119000001 cycles:   70563792 heartbeat IPC: 0.81473 cumulative IPC: 0.87415 (Simulation time: 0 hr 2 min 3 sec) 
Heartbeat CPU  0 instructions:  120000000 cycles:   71794094 heartbeat IPC: 0.81281 cumulative IPC: 0.87087 (Simulation time: 0 hr 2 min 5 sec) 
Heartbeat CPU  0 instructions:  121000000 cycles:   73024375 heartbeat IPC: 0.81282 cumulative IPC: 0.86791 (Simulation time: 0 hr 2 min 6 sec) 
Heartbeat CPU  0 instructions:  122000002 cycles:   74252670 heartbeat IPC: 0.81414 cumulative IPC: 0.86532 (Simulation time: 0 hr 2 min 8 sec) 
Heartbeat CPU  0 instructions:  123000002 cycles:   75477088 heartbeat IPC: 0.81671 cumulative IPC: 0.86308 (Simulation time: 0 hr 2 min 9 sec) 
Heartbeat CPU  0 instructions:  124000000 cycles:   76704528 heartbeat IPC: 0.81470 cumulative IPC: 0.86095 (Simulation time: 0 hr 2 min 10 sec) 
Heartbeat CPU  0 instructions:  125000003 cycles:   77934532 heartbeat IPC: 0.81301 cumulative IPC: 0.85893 (Simulation time: 0 hr 2 min 12 sec) 
Heartbeat CPU  0 instructions:  126000000 cycles:   79163941 heartbeat IPC: 0.81340 cumulative IPC: 0.85708 (Simulation time: 0 hr 2 min 13 sec) 
Heartbeat CPU  0 instructions:  127000000 cycles:   80393676 heartbeat IPC: 0.81318 cumulative IPC: 0.85537 (Simulation time: 0 hr 2 min 15 sec) 
Heartbeat CPU  0 instructions:  128000000 cycles:   81625072 heartbeat IPC: 0.81209 cumulative IPC: 0.85375 (Simulation time: 0 hr 2 min 16 sec) 
Heartbeat CPU  0 instructions:  129000001 cycles:   82719570 heartbeat IPC: 0.91366 cumulative IPC: 0.85568 (Simulation time: 0 hr 2 min 18 sec) 
Heartbeat CPU  0 instructions:  130000001 cycles:   83580438 heartbeat IPC: 1.16162 cumulative IPC: 0.86326 (Simulation time: 0 hr 2 min 19 sec) 
Heartbeat CPU  0 instructions:  131000000 cycles:   85722323 heartbeat IPC: 0.46688 cumulative IPC: 0.84025 (Simulation time: 0 hr 2 min 21 sec) 
Heartbeat CPU  0 instructions:  132000000 cycles:   88075218 heartbeat IPC: 0.42501 cumulative IPC: 0.81535 (Simulation time: 0 hr 2 min 23 sec) 
Heartbeat CPU  0 instructions:  133000000 cycles:   90442313 heartbeat IPC: 0.42246 cumulative IPC: 0.79300 (Simulation time: 0 hr 2 min 25 sec) 
Heartbeat CPU  0 instructions:  134000000 cycles:   92813001 heartbeat IPC: 0.42182 cumulative IPC: 0.77300 (Simulation time: 0 hr 2 min 27 sec) 
Heartbeat CPU  0 instructions:  135000000 cycles:   95188117 heartbeat IPC: 0.42103 cumulative IPC: 0.75497 (Simulation time: 0 hr 2 min 30 sec) 
Heartbeat CPU  0 instructions:  136000000 cycles:   97553728 heartbeat IPC: 0.42272 cumulative IPC: 0.73884 (Simulation time: 0 hr 2 min 32 sec) 
Heartbeat CPU  0 instructions:  137000000 cycles:   99915842 heartbeat IPC: 0.42335 cumulative IPC: 0.72425 (Simulation time: 0 hr 2 min 34 sec) 
Heartbeat CPU  0 instructions:  138000000 cycles:  102291598 heartbeat IPC: 0.42092 cumulative IPC: 0.71077 (Simulation time: 0 hr 2 min 36 sec) 
Heartbeat CPU  0 instructions:  139000000 cycles:  104666999 heartbeat IPC: 0.42098 cumulative IPC: 0.69844 (Simulation time: 0 hr 2 min 38 sec) 
Heartbeat CPU  0 instructions:  140000000 cycles:  107019241 heartbeat IPC: 0.42513 cumulative IPC: 0.68739 (Simulation time: 0 hr 2 min 41 sec) 
Heartbeat CPU  0 instructions:  141000000 cycles:  109379440 heartbeat IPC: 0.42369 cumulative IPC: 0.67712 (Simulation time: 0 hr 2 min 43 sec) 
Heartbeat CPU  0 instructions:  142000000 cycles:  111747257 heartbeat IPC: 0.42233 cumulative IPC: 0.66753 (Simulation time: 0 hr 2 min 45 sec) 
Heartbeat CPU  0 instructions:  143000000 cycles:  114125598 heartbeat IPC: 0.42046 cumulative IPC: 0.65853 (Simulation time: 0 hr 2 min 47 sec) 
Heartbeat CPU  0 instructions:  144000000 cycles:  116492321 heartbeat IPC: 0.42253 cumulative IPC: 0.65027 (Simulation time: 0 hr 2 min 49 sec) 
Heartbeat CPU  0 instructions:  145000002 cycles:  118618880 heartbeat IPC: 0.47024 cumulative IPC: 0.64479 (Simulation time: 0 hr 2 min 51 sec) 
Heartbeat CPU  0 instructions:  146000000 cycles:  119752582 heartbeat IPC: 0.88206 cumulative IPC: 0.64858 (Simulation time: 0 hr 2 min 53 sec) 
Heartbeat CPU  0 instructions:  147000000 cycles:  120786654 heartbeat IPC: 0.96705 cumulative IPC: 0.65316 (Simulation time: 0 hr 2 min 54 sec) 
Heartbeat CPU  0 instructions:  148000000 cycles:  121823048 heartbeat IPC: 0.96488 cumulative IPC: 0.65758 (Simulation time: 0 hr 2 min 55 sec) 
Heartbeat CPU  0 instructions:  149000000 cycles:  122868911 heartbeat IPC: 0.95615 cumulative IPC: 0.66180 (Simulation time: 0 hr 2 min 57 sec) 
Heartbeat CPU  0 instructions:  150000001 cycles:  123902480 heartbeat IPC: 0.96752 cumulative IPC: 0.66601 (Simulation time: 0 hr 2 min 58 sec) 
Heartbeat CPU  0 instructions:  151000000 cycles:  124958553 heartbeat IPC: 0.94690 cumulative IPC: 0.66991 (Simulation time: 0 hr 3 min 0 sec) 
Heartbeat CPU  0 instructions:  152000000 cycles:  126001354 heartbeat IPC: 0.95896 cumulative IPC: 0.67381 (Simulation time: 0 hr 3 min 1 sec) 
Heartbeat CPU  0 instructions:  153000001 cycles:  127048581 heartbeat IPC: 0.95490 cumulative IPC: 0.67757 (Simulation time: 0 hr 3 min 2 sec) 
Heartbeat CPU  0 instructions:  154000003 cycles:  128088441 heartbeat IPC: 0.96167 cumulative IPC: 0.68130 (Simulation time: 0 hr 3 min 4 sec) 
Heartbeat CPU  0 instructions:  155000001 cycles:  129127124 heartbeat IPC: 0.96276 cumulative IPC: 0.68494 (Simulation time: 0 hr 3 min 5 sec) 
Heartbeat CPU  0 instructions:  156000000 cycles:  130163912 heartbeat IPC: 0.96452 cumulative IPC: 0.68851 (Simulation time: 0 hr 3 min 7 sec) 
Heartbeat CPU  0 instructions:  157000002 cycles:  131202461 heartbeat IPC: 0.96288 cumulative IPC: 0.69197 (Simulation time: 0 hr 3 min 8 sec) 
Heartbeat CPU  0 instructions:  158000000 cycles:  132244327 heartbeat IPC: 0.95981 cumulative IPC: 0.69531 (Simulation time: 0 hr 3 min 9 sec) 
Heartbeat CPU  0 instructions:  159000002 cycles:  133291515 heartbeat IPC: 0.95494 cumulative IPC: 0.69853 (Simulation time: 0 hr 3 min 11 sec) 
Heartbeat CPU  0 instructions:  160000000 cycles:  134327617 heartbeat IPC: 0.96515 cumulative IPC: 0.70176 (Simulation time: 0 hr 3 min 12 sec) 
Heartbeat CPU  0 instructions:  161000000 cycles:  135364982 heartbeat IPC: 0.96398 cumulative IPC: 0.70490 (Simulation time: 0 hr 3 min 14 sec) 
Heartbeat CPU  0 instructions:  162000002 cycles:  136410291 heartbeat IPC: 0.95666 cumulative IPC: 0.70791 (Simulation time: 0 hr 3 min 15 sec) 
Heartbeat CPU  0 instructions:  163000000 cycles:  137459591 heartbeat IPC: 0.95301 cumulative IPC: 0.71081 (Simulation time: 0 hr 3 min 16 sec) 
Heartbeat CPU  0 instructions:  164000000 cycles:  138502218 heartbeat IPC: 0.95912 cumulative IPC: 0.71370 (Simulation time: 0 hr 3 min 18 sec) 
Heartbeat CPU  0 instructions:  165000001 cycles:  139542595 heartbeat IPC: 0.96119 cumulative IPC: 0.71654 (Simulation time: 0 hr 3 min 19 sec) 
Heartbeat CPU  0 instructions:  166000003 cycles:  140586250 heartbeat IPC: 0.95817 cumulative IPC: 0.71928 (Simulation time: 0 hr 3 min 21 sec) 
Heartbeat CPU  0 instructions:  167000001 cycles:  141497301 heartbeat IPC: 1.09763 cumulative IPC: 0.72300 (Simulation time: 0 hr 3 min 22 sec) 
Heartbeat CPU  0 instructions:  168000000 cycles:  142380937 heartbeat IPC: 1.13169 cumulative IPC: 0.72686 (Simulation time: 0 hr 3 min 23 sec) 
Heartbeat CPU  0 instructions:  169000000 cycles:  143564559 heartbeat IPC: 0.84486 cumulative IPC: 0.72834 (Simulation time: 0 hr 3 min 25 sec) 
Heartbeat CPU  0 instructions:  170000003 cycles:  144778426 heartbeat IPC: 0.82382 cumulative IPC: 0.72955 (Simulation time: 0 hr 3 min 26 sec) 
Heartbeat CPU  0 instructions:  171000001 cycles:  145987334 heartbeat IPC: 0.82719 cumulative IPC: 0.73076 (Simulation time: 0 hr 3 min 28 sec) 
Heartbeat CPU  0 instructions:  172000000 cycles:  147198295 heartbeat IPC: 0.82579 cumulative IPC: 0.73193 (Simulation time: 0 hr 3 min 29 sec) 
Heartbeat CPU  0 instructions:  173000001 cycles:  148408427 heartbeat IPC: 0.82636 cumulative IPC: 0.73308 (Simulation time: 0 hr 3 min 31 sec) 
Heartbeat CPU  0 instructions:  174000000 cycles:  149620168 heartbeat IPC: 0.82526 cumulative IPC: 0.73419 (Simulation time: 0 hr 3 min 32 sec) 
Heartbeat CPU  0 instructions:  175000002 cycles:  150829343 heartbeat IPC: 0.82701 cumulative IPC: 0.73529 (Simulation time: 0 hr 3 min 34 sec) 
Heartbeat CPU  0 instructions:  176000000 cycles:  152040061 heartbeat IPC: 0.82595 cumulative IPC: 0.73635 (Simulation time: 0 hr 3 min 35 sec) 
Heartbeat CPU  0 instructions:  177000002 cycles:  153251205 heartbeat IPC: 0.82567 cumulative IPC: 0.73739 (Simulation time: 0 hr 3 min 37 sec) 
Heartbeat CPU  0 instructions:  178000000 cycles:  154462055 heartbeat IPC: 0.82586 cumulative IPC: 0.73840 (Simulation time: 0 hr 3 min 38 sec) 
Heartbeat CPU  0 instructions:  179000003 cycles:  155673151 heartbeat IPC: 0.82570 cumulative IPC: 0.73939 (Simulation time: 0 hr 3 min 40 sec) 
Heartbeat CPU  0 instructions:  180000000 cycles:  156882391 heartbeat IPC: 0.82696 cumulative IPC: 0.74037 (Simulation time: 0 hr 3 min 41 sec) 
Heartbeat CPU  0 instructions:  181000000 cycles:  158092975 heartbeat IPC: 0.82605 cumulative IPC: 0.74132 (Simulation time: 0 hr 3 min 43 sec) 
Heartbeat CPU  0 instructions:  182000001 cycles:  159303375 heartbeat IPC: 0.82617 cumulative IPC: 0.74225 (Simulation time: 0 hr 3 min 44 sec) 
Heartbeat CPU  0 instructions:  183000000 cycles:  160513147 heartbeat IPC: 0.82660 cumulative IPC: 0.74316 (Simulation time: 0 hr 3 min 46 sec) 
Heartbeat CPU  0 instructions:  184000000 cycles:  161719470 heartbeat IPC: 0.82897 cumulative IPC: 0.74408 (Simulation time: 0 hr 3 min 47 sec) 
Heartbeat CPU  0 instructions:  185000001 cycles:  162931159 heartbeat IPC: 0.82530 cumulative IPC: 0.74494 (Simulation time: 0 hr 3 min 49 sec) 
Heartbeat CPU  0 instructions:  186000002 cycles:  164141515 heartbeat IPC: 0.82620 cumulative IPC: 0.74580 (Simulation time: 0 hr 3 min 50 sec) 
Heartbeat CPU  0 instructions:  187000000 cycles:  165353065 heartbeat IPC: 0.82539 cumulative IPC: 0.74662 (Simulation time: 0 hr 3 min 52 sec) 
Heartbeat CPU  0 instructions:  188000000 cycles:  166562539 heartbeat IPC: 0.82681 cumulative IPC: 0.74745 (Simulation time: 0 hr 3 min 53 sec) 
Heartbeat CPU  0 instructions:  189000001 cycles:  167774518 heartbeat IPC: 0.82510 cumulative IPC: 0.74824 (Simulation time: 0 hr 3 min 55 sec) 
Heartbeat CPU  0 instructions:  190000000 cycles:  168822810 heartbeat IPC: 0.95393 cumulative IPC: 0.75004 (Simulation time: 0 hr 3 min 56 sec) 
Heartbeat CPU  0 instructions:  191000000 cycles:  169676222 heartbeat IPC: 1.17177 cumulative IPC: 0.75301 (Simulation time: 0 hr 3 min 58 sec) 
Heartbeat CPU  0 instructions:  192000000 cycles:  171859528 heartbeat IPC: 0.45802 cumulative IPC: 0.74778 (Simulation time: 0 hr 4 min 0 sec) 
Heartbeat CPU  0 instructions:  193000000 cycles:  174235430 heartbeat IPC: 0.42089 cumulative IPC: 0.74159 (Simulation time: 0 hr 4 min 2 sec) 
Heartbeat CPU  0 instructions:  194000000 cycles:  176611107 heartbeat IPC: 0.42093 cumulative IPC: 0.73562 (Simulation time: 0 hr 4 min 4 sec) 
Heartbeat CPU  0 instructions:  195000000 cycles:  178987082 heartbeat IPC: 0.42088 cumulative IPC: 0.72988 (Simulation time: 0 hr 4 min 6 sec) 
Heartbeat CPU  0 instructions:  196000000 cycles:  181372952 heartbeat IPC: 0.41913 cumulative IPC: 0.72428 (Simulation time: 0 hr 4 min 8 sec) 
Heartbeat CPU  0 instructions:  197000000 cycles:  183741713 heartbeat IPC: 0.42216 cumulative IPC: 0.71898 (Simulation time: 0 hr 4 min 10 sec) 
Heartbeat CPU  0 instructions:  198000000 cycles:  186116356 heartbeat IPC: 0.42112 cumulative IPC: 0.71383 (Simulation time: 0 hr 4 min 12 sec) 
Heartbeat CPU  0 instructions:  199000000 cycles:  188498554 heartbeat IPC: 0.41978 cumulative IPC: 0.70881 (Simulation time: 0 hr 4 min 15 sec) 
Heartbeat CPU  0 instructions:  200000000 cycles:  190886400 heartbeat IPC: 0.41879 cumulative IPC: 0.70394 (Simulation time: 0 hr 4 min 17 sec) 
Finished CPU 0 instructions: 100000000 cycles: 142057975 cumulative IPC: 0.70394 (Simulation time: 0 hr 4 min 17 sec) 

ChampSim completed all CPUs

[ROI Statistics]
Core_0_instructions 100000000
Core_0_cycles 142057975
Core_0_IPC 0.70394

Core_0_branch_prediction_accuracy 99.58952
Core_0_branch_MPKI 0.70683
Core_0_average_ROB_occupancy_at_mispredict 218.78483

Core_0_L1D_total_access 13337944
Core_0_L1D_total_hit 10761721
Core_0_L1D_total_miss 2576223
Core_0_L1D_loads 9844964
Core_0_L1D_load_hit 7268761
Core_0_L1D_load_miss 2576203
Core_0_L1D_RFOs 3492980
Core_0_L1D_RFO_hit 3492960
Core_0_L1D_RFO_miss 20
Core_0_L1D_prefetches 0
Core_0_L1D_prefetch_hit 0
Core_0_L1D_prefetch_miss 0
Core_0_L1D_writebacks 0
Core_0_L1D_writeback_hit 0
Core_0_L1D_writeback_miss 0
Core_0_L1D_prefetch_requested 0
Core_0_L1D_prefetch_issued 0
Core_0_L1D_prefetch_useful 0
Core_0_L1D_prefetch_useless 0
Core_0_L1D_prefetch_late 0
Core_0_L1D_average_miss_latency 103.05663

Core_0_L1I_total_access 32451196
Core_0_L1I_total_hit 32451195
Core_0_L1I_total_miss 1
Core_0_L1I_loads 32451196
Core_0_L1I_load_hit 32451195
Core_0_L1I_load_miss 1
Core_0_L1I_RFOs 0
Core_0_L1I_RFO_hit 0
Core_0_L1I_RFO_miss 0
Core_0_L1I_prefetches 0
Core_0_L1I_prefetch_hit 0
Core_0_L1I_prefetch_miss 0
Core_0_L1I_writebacks 0
Core_0_L1I_writeback_hit 0
Core_0_L1I_writeback_miss 0
Core_0_L1I_prefetch_requested 0
Core_0_L1I_prefetch_issued 0
Core_0_L1I_prefetch_useful 0
Core_0_L1I_prefetch_useless 0
Core_0_L1I_prefetch_late 0
Core_0_L1I_average_miss_latency 236.00000

Core_0_L2C_total_access 5435045
Core_0_L2C_total_hit 2858808
Core_0_L2C_total_miss 2576237
Core_0_L2C_loads 2576204
Core_0_L2C_load_hit 1056777
Core_0_L2C_load_miss 1519427
Core_0_L2C_RFOs 20
Core_0_L2C_RFO_hit 0
Core_0_L2C_RFO_miss 20
Core_0_L2C_prefetches 1908676
Core_0_L2C_prefetch_hit 851886
Core_0_L2C_prefetch_miss 1056790
Core_0_L2C_writebacks 950145
Core_0_L2C_writeback_hit 950145
Core_0_L2C_writeback_miss 0
Core_0_L2C_prefetch_requested 15191826
Core_0_L2C_prefetch_issued 15191826
Core_0_L2C_prefetch_useful 3667272
Core_0_L2C_prefetch_useless 30
Core_0_L2C_prefetch_late 1446315
Core_0_L2C_average_miss_latency 151.54869

Core_0_LLC_total_access 3518941
Core_0_LLC_total_hit 116190
Core_0_LLC_total_miss 3402751
Core_0_LLC_loads 73114
Core_0_LLC_load_hit 3047
Core_0_LLC_load_miss 70067
Core_0_LLC_RFOs 20
Core_0_LLC_RFO_hit 16
Core_0_LLC_RFO_miss 4
Core_0_LLC_prefetches 2503104
Core_0_LLC_prefetch_hit 113097
Core_0_LLC_prefetch_miss 2390007
Core_0_LLC_writebacks 942703
Core_0_LLC_writeback_hit 30
Core_0_LLC_writeback_miss 942673
Core_0_LLC_prefetch_requested 0
Core_0_LLC_prefetch_issued 0
Core_0_LLC_prefetch_useful 0
Core_0_LLC_prefetch_useless 4940256
Core_0_LLC_prefetch_late 0
Core_0_LLC_average_miss_latency 130.42979

Core_0_major_page_fault 0
Core_0_minor_page_fault 8199

CPU 0 L2C PC-based stride prefetcher final stats
Channel_0_RQ_row_buffer_hit 1254020
Channel_0_RQ_row_buffer_miss 1206059
Channel_0_WQ_row_buffer_hit 211368
Channel_0_WQ_row_buffer_miss 730111
Channel_0_WQ_full 0
Channel_0_dbus_congested 1962649

avg_congested_cycle 10
