*************************************************
   ChampSim Multicore Out-of-Order Simulator
   Last compiled: Dec 21 2023 17:26:11
*************************************************

trace_0 ./test_trace/462.libquantum-714B.champsimtrace.xz
CPU 0 L1D next line prefetcher
CPU 0 L2C IP-based stride prefetcher
LLC Next Line Prefetcher
warmup_instructions 100000000
simulation_instructions 100000000
champsim_seed 222

num_cpus 1
cpu_freq 4000
dram_io_freq 2400
page_size 4096
block_size 64
max_read_per_cycle 8
max_fill_per_cycle 1
dram_channels 1
dram_ranks 1
dram_banks 8
dram_rows 65536
dram_columns 128
dram_row_size 8
dram_size 4096
dram_pages 1048576

fetch_width 6
decode_width 6
exec_width 4
lq_width 2
sq_width 2
retire_width 4
scheduler_size 128
branch_mispredict_penalty 20
rob_size 256
lq_size 72
sq_size 56
num_instr_destinations_sparc 4
num_instr_destinations 2
num_instr_sources 4

itlb_set 16
itlb_way 8
itlb_rq_size 16
itlb_wq_size 16
itlb_pq_size 0
itlb_mshr_size 8
itlb_latency 1

dtlb_set 16
dtlb_way 4
dtlb_rq_size 16
dtlb_wq_size 16
dtlb_pq_size 0
dtlb_mshr_size 8
dtlb_latency 1

stlb_set 128
stlb_way 12
stlb_rq_size 32
stlb_wq_size 32
stlb_pq_size 0
stlb_mshr_size 16
stlb_latency 8

l1i_size 32
l1i_set 64
l1i_way 8
l1i_rq_size 64
l1i_wq_size 64
l1i_pq_size 8
l1i_mshr_size 8
l1i_latency 1

l1d_size 32
l1d_set 64
l1d_way 8
l1d_rq_size 64
l1d_wq_size 64
l1d_pq_size 8
l1d_mshr_size 16
l1d_latency 4

l2c_size 512
l2c_set 1024
l2c_way 8
l2c_rq_size 32
l2c_wq_size 32
l2c_pq_size 16
l2c_mshr_size 32
l2c_latency 10

llc_size 2048
llc_set 2048
llc_way 16
llc_rq_size 32
llc_wq_size 32
llc_pq_size 32
llc_mshr_size 64
llc_latency 20

dram_channel_width 8
dram_wq_size 64
dram_rq_size 64
tRP 15
tRCD 15
tCAS 12.5
dram_dbus_turn_around_time 30
dram_write_high_wm 56
dram_write_low_wm 48
min_dram_writes_per_switch 16
dram_mtps 2400
dram_dbus_return_time 13


Heartbeat CPU  0 instructions:    1000000 cycles:     581510 heartbeat IPC: 1.71966 cumulative IPC: 1.71966 (Simulation time: 0 hr 0 min 0 sec) 
Heartbeat CPU  0 instructions:    2000003 cycles:    1163543 heartbeat IPC: 1.71812 cumulative IPC: 1.71889 (Simulation time: 0 hr 0 min 1 sec) 
Heartbeat CPU  0 instructions:    3000002 cycles:    1745575 heartbeat IPC: 1.71812 cumulative IPC: 1.71863 (Simulation time: 0 hr 0 min 2 sec) 
Heartbeat CPU  0 instructions:    4000000 cycles:    2327604 heartbeat IPC: 1.71812 cumulative IPC: 1.71851 (Simulation time: 0 hr 0 min 3 sec) 
Heartbeat CPU  0 instructions:    5000000 cycles:    2909636 heartbeat IPC: 1.71812 cumulative IPC: 1.71843 (Simulation time: 0 hr 0 min 4 sec) 
Heartbeat CPU  0 instructions:    6000000 cycles:    3491670 heartbeat IPC: 1.71811 cumulative IPC: 1.71838 (Simulation time: 0 hr 0 min 5 sec) 
Heartbeat CPU  0 instructions:    7000000 cycles:    4073701 heartbeat IPC: 1.71812 cumulative IPC: 1.71834 (Simulation time: 0 hr 0 min 5 sec) 
Heartbeat CPU  0 instructions:    8000000 cycles:    4655734 heartbeat IPC: 1.71812 cumulative IPC: 1.71831 (Simulation time: 0 hr 0 min 6 sec) 
Heartbeat CPU  0 instructions:    9000002 cycles:    5192886 heartbeat IPC: 1.86167 cumulative IPC: 1.73314 (Simulation time: 0 hr 0 min 8 sec) 
Heartbeat CPU  0 instructions:   10000002 cycles:    5715748 heartbeat IPC: 1.91255 cumulative IPC: 1.74955 (Simulation time: 0 hr 0 min 9 sec) 
Heartbeat CPU  0 instructions:   11000001 cycles:    6238633 heartbeat IPC: 1.91246 cumulative IPC: 1.76321 (Simulation time: 0 hr 0 min 10 sec) 
Heartbeat CPU  0 instructions:   12000000 cycles:    6761495 heartbeat IPC: 1.91255 cumulative IPC: 1.77476 (Simulation time: 0 hr 0 min 12 sec) 
Heartbeat CPU  0 instructions:   13000001 cycles:    7284404 heartbeat IPC: 1.91238 cumulative IPC: 1.78463 (Simulation time: 0 hr 0 min 13 sec) 
Heartbeat CPU  0 instructions:   14000001 cycles:    7807266 heartbeat IPC: 1.91255 cumulative IPC: 1.79320 (Simulation time: 0 hr 0 min 14 sec) 
Heartbeat CPU  0 instructions:   15000000 cycles:    8330151 heartbeat IPC: 1.91246 cumulative IPC: 1.80069 (Simulation time: 0 hr 0 min 16 sec) 
Heartbeat CPU  0 instructions:   16000000 cycles:    8853013 heartbeat IPC: 1.91255 cumulative IPC: 1.80729 (Simulation time: 0 hr 0 min 17 sec) 
Heartbeat CPU  0 instructions:   17000000 cycles:    9375922 heartbeat IPC: 1.91238 cumulative IPC: 1.81316 (Simulation time: 0 hr 0 min 19 sec) 
Heartbeat CPU  0 instructions:   18000000 cycles:    9898784 heartbeat IPC: 1.91255 cumulative IPC: 1.81841 (Simulation time: 0 hr 0 min 20 sec) 
Heartbeat CPU  0 instructions:   19000003 cycles:   10421669 heartbeat IPC: 1.91247 cumulative IPC: 1.82312 (Simulation time: 0 hr 0 min 21 sec) 
Heartbeat CPU  0 instructions:   20000000 cycles:   10944531 heartbeat IPC: 1.91254 cumulative IPC: 1.82740 (Simulation time: 0 hr 0 min 23 sec) 
Heartbeat CPU  0 instructions:   21000003 cycles:   11467440 heartbeat IPC: 1.91238 cumulative IPC: 1.83127 (Simulation time: 0 hr 0 min 24 sec) 
Heartbeat CPU  0 instructions:   22000003 cycles:   11990302 heartbeat IPC: 1.91255 cumulative IPC: 1.83482 (Simulation time: 0 hr 0 min 26 sec) 
Heartbeat CPU  0 instructions:   23000000 cycles:   12504818 heartbeat IPC: 1.94357 cumulative IPC: 1.83929 (Simulation time: 0 hr 0 min 27 sec) 
Heartbeat CPU  0 instructions:   24000000 cycles:   12925099 heartbeat IPC: 2.37936 cumulative IPC: 1.85685 (Simulation time: 0 hr 0 min 28 sec) 
Heartbeat CPU  0 instructions:   25000000 cycles:   13345375 heartbeat IPC: 2.37939 cumulative IPC: 1.87331 (Simulation time: 0 hr 0 min 28 sec) 
Heartbeat CPU  0 instructions:   26000000 cycles:   13765661 heartbeat IPC: 2.37933 cumulative IPC: 1.88876 (Simulation time: 0 hr 0 min 29 sec) 
Heartbeat CPU  0 instructions:   27000000 cycles:   14185972 heartbeat IPC: 2.37919 cumulative IPC: 1.90329 (Simulation time: 0 hr 0 min 30 sec) 
Heartbeat CPU  0 instructions:   28000000 cycles:   14606280 heartbeat IPC: 2.37921 cumulative IPC: 1.91698 (Simulation time: 0 hr 0 min 31 sec) 
Heartbeat CPU  0 instructions:   29000002 cycles:   15026558 heartbeat IPC: 2.37938 cumulative IPC: 1.92992 (Simulation time: 0 hr 0 min 31 sec) 
Heartbeat CPU  0 instructions:   30000003 cycles:   15446824 heartbeat IPC: 2.37945 cumulative IPC: 1.94215 (Simulation time: 0 hr 0 min 32 sec) 
Heartbeat CPU  0 instructions:   31000001 cycles:   15867118 heartbeat IPC: 2.37928 cumulative IPC: 1.95373 (Simulation time: 0 hr 0 min 33 sec) 
Heartbeat CPU  0 instructions:   32000000 cycles:   16287437 heartbeat IPC: 2.37914 cumulative IPC: 1.96470 (Simulation time: 0 hr 0 min 34 sec) 
Heartbeat CPU  0 instructions:   33000003 cycles:   16707711 heartbeat IPC: 2.37941 cumulative IPC: 1.97514 (Simulation time: 0 hr 0 min 35 sec) 
Heartbeat CPU  0 instructions:   34000000 cycles:   17127973 heartbeat IPC: 2.37946 cumulative IPC: 1.98506 (Simulation time: 0 hr 0 min 35 sec) 
Heartbeat CPU  0 instructions:   35000002 cycles:   17548262 heartbeat IPC: 2.37932 cumulative IPC: 1.99450 (Simulation time: 0 hr 0 min 36 sec) 
Heartbeat CPU  0 instructions:   36000000 cycles:   17968575 heartbeat IPC: 2.37917 cumulative IPC: 2.00350 (Simulation time: 0 hr 0 min 37 sec) 
Heartbeat CPU  0 instructions:   37000000 cycles:   18388891 heartbeat IPC: 2.37916 cumulative IPC: 2.01208 (Simulation time: 0 hr 0 min 38 sec) 
Heartbeat CPU  0 instructions:   38000002 cycles:   18809160 heartbeat IPC: 2.37943 cumulative IPC: 2.02029 (Simulation time: 0 hr 0 min 38 sec) 
Heartbeat CPU  0 instructions:   39000000 cycles:   19229443 heartbeat IPC: 2.37934 cumulative IPC: 2.02814 (Simulation time: 0 hr 0 min 39 sec) 
Heartbeat CPU  0 instructions:   40000000 cycles:   19649737 heartbeat IPC: 2.37929 cumulative IPC: 2.03565 (Simulation time: 0 hr 0 min 40 sec) 
Heartbeat CPU  0 instructions:   41000002 cycles:   20070073 heartbeat IPC: 2.37905 cumulative IPC: 2.04284 (Simulation time: 0 hr 0 min 41 sec) 
Heartbeat CPU  0 instructions:   42000003 cycles:   20490343 heartbeat IPC: 2.37943 cumulative IPC: 2.04975 (Simulation time: 0 hr 0 min 41 sec) 
Heartbeat CPU  0 instructions:   43000001 cycles:   20910613 heartbeat IPC: 2.37942 cumulative IPC: 2.05637 (Simulation time: 0 hr 0 min 42 sec) 
Heartbeat CPU  0 instructions:   44000000 cycles:   21330883 heartbeat IPC: 2.37942 cumulative IPC: 2.06274 (Simulation time: 0 hr 0 min 43 sec) 
Heartbeat CPU  0 instructions:   45000001 cycles:   21751186 heartbeat IPC: 2.37924 cumulative IPC: 2.06885 (Simulation time: 0 hr 0 min 44 sec) 
Heartbeat CPU  0 instructions:   46000001 cycles:   22171493 heartbeat IPC: 2.37921 cumulative IPC: 2.07474 (Simulation time: 0 hr 0 min 44 sec) 
Heartbeat CPU  0 instructions:   47000000 cycles:   22751000 heartbeat IPC: 1.72560 cumulative IPC: 2.06584 (Simulation time: 0 hr 0 min 45 sec) 
Heartbeat CPU  0 instructions:   48000000 cycles:   23333739 heartbeat IPC: 1.71603 cumulative IPC: 2.05711 (Simulation time: 0 hr 0 min 46 sec) 
Heartbeat CPU  0 instructions:   49000000 cycles:   23916483 heartbeat IPC: 1.71602 cumulative IPC: 2.04880 (Simulation time: 0 hr 0 min 47 sec) 
Heartbeat CPU  0 instructions:   50000002 cycles:   24499225 heartbeat IPC: 1.71603 cumulative IPC: 2.04088 (Simulation time: 0 hr 0 min 48 sec) 
Heartbeat CPU  0 instructions:   51000002 cycles:   25081966 heartbeat IPC: 1.71603 cumulative IPC: 2.03333 (Simulation time: 0 hr 0 min 49 sec) 
Heartbeat CPU  0 instructions:   52000000 cycles:   25664705 heartbeat IPC: 1.71603 cumulative IPC: 2.02613 (Simulation time: 0 hr 0 min 49 sec) 
Heartbeat CPU  0 instructions:   53000000 cycles:   26247446 heartbeat IPC: 1.71603 cumulative IPC: 2.01924 (Simulation time: 0 hr 0 min 50 sec) 
Heartbeat CPU  0 instructions:   54000003 cycles:   26830189 heartbeat IPC: 1.71603 cumulative IPC: 2.01266 (Simulation time: 0 hr 0 min 51 sec) 
Heartbeat CPU  0 instructions:   55000002 cycles:   27412931 heartbeat IPC: 1.71602 cumulative IPC: 2.00635 (Simulation time: 0 hr 0 min 52 sec) 
Heartbeat CPU  0 instructions:   56000000 cycles:   27995670 heartbeat IPC: 1.71603 cumulative IPC: 2.00031 (Simulation time: 0 hr 0 min 53 sec) 
Heartbeat CPU  0 instructions:   57000000 cycles:   28578412 heartbeat IPC: 1.71603 cumulative IPC: 1.99451 (Simulation time: 0 hr 0 min 54 sec) 
Heartbeat CPU  0 instructions:   58000000 cycles:   29161156 heartbeat IPC: 1.71602 cumulative IPC: 1.98895 (Simulation time: 0 hr 0 min 54 sec) 
Heartbeat CPU  0 instructions:   59000000 cycles:   29743897 heartbeat IPC: 1.71603 cumulative IPC: 1.98360 (Simulation time: 0 hr 0 min 55 sec) 
Heartbeat CPU  0 instructions:   60000000 cycles:   30326640 heartbeat IPC: 1.71602 cumulative IPC: 1.97846 (Simulation time: 0 hr 0 min 56 sec) 
Heartbeat CPU  0 instructions:   61000002 cycles:   30909380 heartbeat IPC: 1.71603 cumulative IPC: 1.97351 (Simulation time: 0 hr 0 min 57 sec) 
Heartbeat CPU  0 instructions:   62000002 cycles:   31492121 heartbeat IPC: 1.71603 cumulative IPC: 1.96875 (Simulation time: 0 hr 0 min 58 sec) 
Heartbeat CPU  0 instructions:   63000001 cycles:   32074863 heartbeat IPC: 1.71602 cumulative IPC: 1.96415 (Simulation time: 0 hr 0 min 59 sec) 
Heartbeat CPU  0 instructions:   64000000 cycles:   32657602 heartbeat IPC: 1.71603 cumulative IPC: 1.95973 (Simulation time: 0 hr 1 min 0 sec) 
Heartbeat CPU  0 instructions:   65000003 cycles:   33240345 heartbeat IPC: 1.71603 cumulative IPC: 1.95546 (Simulation time: 0 hr 1 min 0 sec) 
Heartbeat CPU  0 instructions:   66000002 cycles:   33823087 heartbeat IPC: 1.71602 cumulative IPC: 1.95133 (Simulation time: 0 hr 1 min 1 sec) 
Heartbeat CPU  0 instructions:   67000001 cycles:   34405826 heartbeat IPC: 1.71603 cumulative IPC: 1.94734 (Simulation time: 0 hr 1 min 2 sec) 
Heartbeat CPU  0 instructions:   68000000 cycles:   34988569 heartbeat IPC: 1.71602 cumulative IPC: 1.94349 (Simulation time: 0 hr 1 min 3 sec) 
Heartbeat CPU  0 instructions:   69000000 cycles:   35571314 heartbeat IPC: 1.71602 cumulative IPC: 1.93977 (Simulation time: 0 hr 1 min 4 sec) 
Heartbeat CPU  0 instructions:   70000000 cycles:   36097436 heartbeat IPC: 1.90070 cumulative IPC: 1.93920 (Simulation time: 0 hr 1 min 5 sec) 
Heartbeat CPU  0 instructions:   71000003 cycles:   36618086 heartbeat IPC: 1.92068 cumulative IPC: 1.93893 (Simulation time: 0 hr 1 min 6 sec) 
Heartbeat CPU  0 instructions:   72000000 cycles:   37138716 heartbeat IPC: 1.92074 cumulative IPC: 1.93868 (Simulation time: 0 hr 1 min 8 sec) 
Heartbeat CPU  0 instructions:   73000002 cycles:   37659393 heartbeat IPC: 1.92058 cumulative IPC: 1.93843 (Simulation time: 0 hr 1 min 9 sec) 
Heartbeat CPU  0 instructions:   74000002 cycles:   38180023 heartbeat IPC: 1.92075 cumulative IPC: 1.93819 (Simulation time: 0 hr 1 min 11 sec) 
Heartbeat CPU  0 instructions:   75000001 cycles:   38700677 heartbeat IPC: 1.92066 cumulative IPC: 1.93795 (Simulation time: 0 hr 1 min 12 sec) 
Heartbeat CPU  0 instructions:   76000000 cycles:   39221307 heartbeat IPC: 1.92075 cumulative IPC: 1.93772 (Simulation time: 0 hr 1 min 13 sec) 
Heartbeat CPU  0 instructions:   77000001 cycles:   39741984 heartbeat IPC: 1.92058 cumulative IPC: 1.93750 (Simulation time: 0 hr 1 min 15 sec) 
Heartbeat CPU  0 instructions:   78000001 cycles:   40262614 heartbeat IPC: 1.92075 cumulative IPC: 1.93728 (Simulation time: 0 hr 1 min 16 sec) 
Heartbeat CPU  0 instructions:   79000000 cycles:   40783268 heartbeat IPC: 1.92066 cumulative IPC: 1.93707 (Simulation time: 0 hr 1 min 17 sec) 
Heartbeat CPU  0 instructions:   80000000 cycles:   41303898 heartbeat IPC: 1.92075 cumulative IPC: 1.93686 (Simulation time: 0 hr 1 min 19 sec) 
Heartbeat CPU  0 instructions:   81000000 cycles:   41824575 heartbeat IPC: 1.92058 cumulative IPC: 1.93666 (Simulation time: 0 hr 1 min 20 sec) 
Heartbeat CPU  0 instructions:   82000000 cycles:   42345205 heartbeat IPC: 1.92075 cumulative IPC: 1.93646 (Simulation time: 0 hr 1 min 22 sec) 
Heartbeat CPU  0 instructions:   83000003 cycles:   42865857 heartbeat IPC: 1.92067 cumulative IPC: 1.93627 (Simulation time: 0 hr 1 min 23 sec) 
Heartbeat CPU  0 instructions:   84000000 cycles:   43363103 heartbeat IPC: 2.01107 cumulative IPC: 1.93713 (Simulation time: 0 hr 1 min 24 sec) 
Heartbeat CPU  0 instructions:   85000000 cycles:   43783386 heartbeat IPC: 2.37935 cumulative IPC: 1.94138 (Simulation time: 0 hr 1 min 25 sec) 
Heartbeat CPU  0 instructions:   86000001 cycles:   44203673 heartbeat IPC: 2.37933 cumulative IPC: 1.94554 (Simulation time: 0 hr 1 min 26 sec) 
Heartbeat CPU  0 instructions:   87000003 cycles:   44623974 heartbeat IPC: 2.37925 cumulative IPC: 1.94962 (Simulation time: 0 hr 1 min 27 sec) 
Heartbeat CPU  0 instructions:   88000000 cycles:   45044334 heartbeat IPC: 2.37891 cumulative IPC: 1.95363 (Simulation time: 0 hr 1 min 27 sec) 
Heartbeat CPU  0 instructions:   89000001 cycles:   45464614 heartbeat IPC: 2.37937 cumulative IPC: 1.95757 (Simulation time: 0 hr 1 min 28 sec) 
Heartbeat CPU  0 instructions:   90000001 cycles:   45884893 heartbeat IPC: 2.37937 cumulative IPC: 1.96143 (Simulation time: 0 hr 1 min 29 sec) 
Heartbeat CPU  0 instructions:   91000000 cycles:   46305173 heartbeat IPC: 2.37936 cumulative IPC: 1.96522 (Simulation time: 0 hr 1 min 30 sec) 
Heartbeat CPU  0 instructions:   92000000 cycles:   46725480 heartbeat IPC: 2.37921 cumulative IPC: 1.96895 (Simulation time: 0 hr 1 min 30 sec) 
Heartbeat CPU  0 instructions:   93000003 cycles:   47145813 heartbeat IPC: 2.37907 cumulative IPC: 1.97260 (Simulation time: 0 hr 1 min 31 sec) 
Heartbeat CPU  0 instructions:   94000000 cycles:   47566095 heartbeat IPC: 2.37935 cumulative IPC: 1.97620 (Simulation time: 0 hr 1 min 32 sec) 
Heartbeat CPU  0 instructions:   95000002 cycles:   47986378 heartbeat IPC: 2.37935 cumulative IPC: 1.97973 (Simulation time: 0 hr 1 min 33 sec) 
Heartbeat CPU  0 instructions:   96000000 cycles:   48406673 heartbeat IPC: 2.37928 cumulative IPC: 1.98320 (Simulation time: 0 hr 1 min 33 sec) 
Heartbeat CPU  0 instructions:   97000000 cycles:   48827029 heartbeat IPC: 2.37894 cumulative IPC: 1.98660 (Simulation time: 0 hr 1 min 34 sec) 
Heartbeat CPU  0 instructions:   98000000 cycles:   49247319 heartbeat IPC: 2.37931 cumulative IPC: 1.98996 (Simulation time: 0 hr 1 min 35 sec) 
Heartbeat CPU  0 instructions:   99000003 cycles:   49667614 heartbeat IPC: 2.37929 cumulative IPC: 1.99325 (Simulation time: 0 hr 1 min 36 sec) 
Heartbeat CPU  0 instructions:  100000000 cycles:   50087899 heartbeat IPC: 2.37933 cumulative IPC: 1.99649 (Simulation time: 0 hr 1 min 36 sec) 

Warmup complete CPU  0 instructions:  100000001 cycles:   50087901 (Simulation time: 0 hr 1 min 36 sec) 

Heartbeat CPU  0 instructions:  101000003 cycles:   51157896 heartbeat IPC: 0.93458 cumulative IPC: 0.93459 (Simulation time: 0 hr 1 min 38 sec) 
Heartbeat CPU  0 instructions:  102000003 cycles:   52232401 heartbeat IPC: 0.93066 cumulative IPC: 0.93262 (Simulation time: 0 hr 1 min 39 sec) 
Heartbeat CPU  0 instructions:  103000001 cycles:   53304805 heartbeat IPC: 0.93248 cumulative IPC: 0.93257 (Simulation time: 0 hr 1 min 41 sec) 
Heartbeat CPU  0 instructions:  104000000 cycles:   54376572 heartbeat IPC: 0.93304 cumulative IPC: 0.93269 (Simulation time: 0 hr 1 min 42 sec) 
Heartbeat CPU  0 instructions:  105000000 cycles:   55448116 heartbeat IPC: 0.93323 cumulative IPC: 0.93280 (Simulation time: 0 hr 1 min 43 sec) 
Heartbeat CPU  0 instructions:  106000002 cycles:   56519921 heartbeat IPC: 0.93301 cumulative IPC: 0.93283 (Simulation time: 0 hr 1 min 45 sec) 
Heartbeat CPU  0 instructions:  107000000 cycles:   57595699 heartbeat IPC: 0.92956 cumulative IPC: 0.93236 (Simulation time: 0 hr 1 min 46 sec) 
Heartbeat CPU  0 instructions:  108000000 cycles:   58683883 heartbeat IPC: 0.91896 cumulative IPC: 0.93067 (Simulation time: 0 hr 1 min 48 sec) 
Heartbeat CPU  0 instructions:  109000000 cycles:   59791849 heartbeat IPC: 0.90255 cumulative IPC: 0.92746 (Simulation time: 0 hr 1 min 49 sec) 
Heartbeat CPU  0 instructions:  110000001 cycles:   60905156 heartbeat IPC: 0.89823 cumulative IPC: 0.92445 (Simulation time: 0 hr 1 min 50 sec) 
Heartbeat CPU  0 instructions:  111000001 cycles:   62019231 heartbeat IPC: 0.89761 cumulative IPC: 0.92194 (Simulation time: 0 hr 1 min 52 sec) 
Heartbeat CPU  0 instructions:  112000000 cycles:   63134275 heartbeat IPC: 0.89682 cumulative IPC: 0.91980 (Simulation time: 0 hr 1 min 53 sec) 
Heartbeat CPU  0 instructions:  113000002 cycles:   64249198 heartbeat IPC: 0.89692 cumulative IPC: 0.91800 (Simulation time: 0 hr 1 min 54 sec) 
Heartbeat CPU  0 instructions:  114000002 cycles:   65365806 heartbeat IPC: 0.89557 cumulative IPC: 0.91636 (Simulation time: 0 hr 1 min 56 sec) 
Heartbeat CPU  0 instructions:  115000003 cycles:   66481210 heartbeat IPC: 0.89654 cumulative IPC: 0.91501 (Simulation time: 0 hr 1 min 57 sec) 
Heartbeat CPU  0 instructions:  116000000 cycles:   67596294 heartbeat IPC: 0.89679 cumulative IPC: 0.91385 (Simulation time: 0 hr 1 min 58 sec) 
Heartbeat CPU  0 instructions:  117000000 cycles:   68712801 heartbeat IPC: 0.89565 cumulative IPC: 0.91276 (Simulation time: 0 hr 2 min 0 sec) 
Heartbeat CPU  0 instructions:  118000000 cycles:   69830099 heartbeat IPC: 0.89502 cumulative IPC: 0.91175 (Simulation time: 0 hr 2 min 1 sec) 
Heartbeat CPU  0 instructions:  119000001 cycles:   70948051 heartbeat IPC: 0.89449 cumulative IPC: 0.91083 (Simulation time: 0 hr 2 min 3 sec) 
Heartbeat CPU  0 instructions:  120000000 cycles:   72062328 heartbeat IPC: 0.89744 cumulative IPC: 0.91015 (Simulation time: 0 hr 2 min 4 sec) 
Heartbeat CPU  0 instructions:  121000000 cycles:   73179007 heartbeat IPC: 0.89551 cumulative IPC: 0.90944 (Simulation time: 0 hr 2 min 5 sec) 
Heartbeat CPU  0 instructions:  122000002 cycles:   74296694 heartbeat IPC: 0.89471 cumulative IPC: 0.90876 (Simulation time: 0 hr 2 min 7 sec) 
Heartbeat CPU  0 instructions:  123000002 cycles:   75411477 heartbeat IPC: 0.89704 cumulative IPC: 0.90824 (Simulation time: 0 hr 2 min 8 sec) 
Heartbeat CPU  0 instructions:  124000000 cycles:   76527533 heartbeat IPC: 0.89601 cumulative IPC: 0.90773 (Simulation time: 0 hr 2 min 9 sec) 
Heartbeat CPU  0 instructions:  125000003 cycles:   77642900 heartbeat IPC: 0.89657 cumulative IPC: 0.90728 (Simulation time: 0 hr 2 min 11 sec) 
Heartbeat CPU  0 instructions:  126000000 cycles:   78758271 heartbeat IPC: 0.89656 cumulative IPC: 0.90686 (Simulation time: 0 hr 2 min 12 sec) 
Heartbeat CPU  0 instructions:  127000000 cycles:   79873230 heartbeat IPC: 0.89689 cumulative IPC: 0.90649 (Simulation time: 0 hr 2 min 14 sec) 
Heartbeat CPU  0 instructions:  128000000 cycles:   80989986 heartbeat IPC: 0.89545 cumulative IPC: 0.90609 (Simulation time: 0 hr 2 min 15 sec) 
Heartbeat CPU  0 instructions:  129000001 cycles:   82105568 heartbeat IPC: 0.89639 cumulative IPC: 0.90575 (Simulation time: 0 hr 2 min 16 sec) 
Heartbeat CPU  0 instructions:  130000001 cycles:   83220542 heartbeat IPC: 0.89688 cumulative IPC: 0.90545 (Simulation time: 0 hr 2 min 18 sec) 
Heartbeat CPU  0 instructions:  131000000 cycles:   84748031 heartbeat IPC: 0.65467 cumulative IPC: 0.89440 (Simulation time: 0 hr 2 min 19 sec) 
Heartbeat CPU  0 instructions:  132000000 cycles:   86990164 heartbeat IPC: 0.44600 cumulative IPC: 0.86716 (Simulation time: 0 hr 2 min 22 sec) 
Heartbeat CPU  0 instructions:  133000000 cycles:   89232112 heartbeat IPC: 0.44604 cumulative IPC: 0.84304 (Simulation time: 0 hr 2 min 24 sec) 
Heartbeat CPU  0 instructions:  134000000 cycles:   91474204 heartbeat IPC: 0.44601 cumulative IPC: 0.82153 (Simulation time: 0 hr 2 min 26 sec) 
Heartbeat CPU  0 instructions:  135000000 cycles:   93716570 heartbeat IPC: 0.44596 cumulative IPC: 0.80222 (Simulation time: 0 hr 2 min 28 sec) 
Heartbeat CPU  0 instructions:  136000000 cycles:   95958592 heartbeat IPC: 0.44603 cumulative IPC: 0.78481 (Simulation time: 0 hr 2 min 30 sec) 
Heartbeat CPU  0 instructions:  137000000 cycles:   98201634 heartbeat IPC: 0.44582 cumulative IPC: 0.76901 (Simulation time: 0 hr 2 min 33 sec) 
Heartbeat CPU  0 instructions:  138000000 cycles:  100444655 heartbeat IPC: 0.44583 cumulative IPC: 0.75462 (Simulation time: 0 hr 2 min 35 sec) 
Heartbeat CPU  0 instructions:  139000000 cycles:  102686411 heartbeat IPC: 0.44608 cumulative IPC: 0.74147 (Simulation time: 0 hr 2 min 37 sec) 
Heartbeat CPU  0 instructions:  140000000 cycles:  104928892 heartbeat IPC: 0.44593 cumulative IPC: 0.72938 (Simulation time: 0 hr 2 min 39 sec) 
Heartbeat CPU  0 instructions:  141000000 cycles:  107171455 heartbeat IPC: 0.44592 cumulative IPC: 0.71825 (Simulation time: 0 hr 2 min 41 sec) 
Heartbeat CPU  0 instructions:  142000000 cycles:  109413667 heartbeat IPC: 0.44599 cumulative IPC: 0.70796 (Simulation time: 0 hr 2 min 43 sec) 
Heartbeat CPU  0 instructions:  143000000 cycles:  111655629 heartbeat IPC: 0.44604 cumulative IPC: 0.69842 (Simulation time: 0 hr 2 min 46 sec) 
Heartbeat CPU  0 instructions:  144000000 cycles:  113897875 heartbeat IPC: 0.44598 cumulative IPC: 0.68955 (Simulation time: 0 hr 2 min 48 sec) 
Heartbeat CPU  0 instructions:  145000002 cycles:  115951981 heartbeat IPC: 0.48683 cumulative IPC: 0.68323 (Simulation time: 0 hr 2 min 50 sec) 
Heartbeat CPU  0 instructions:  146000000 cycles:  117592496 heartbeat IPC: 0.60956 cumulative IPC: 0.68144 (Simulation time: 0 hr 2 min 52 sec) 
Heartbeat CPU  0 instructions:  147000000 cycles:  118744060 heartbeat IPC: 0.86838 cumulative IPC: 0.68457 (Simulation time: 0 hr 2 min 53 sec) 
Heartbeat CPU  0 instructions:  148000000 cycles:  119811810 heartbeat IPC: 0.93655 cumulative IPC: 0.68843 (Simulation time: 0 hr 2 min 54 sec) 
Heartbeat CPU  0 instructions:  149000000 cycles:  120877629 heartbeat IPC: 0.93825 cumulative IPC: 0.69219 (Simulation time: 0 hr 2 min 56 sec) 
Heartbeat CPU  0 instructions:  150000000 cycles:  121948725 heartbeat IPC: 0.93362 cumulative IPC: 0.69579 (Simulation time: 0 hr 2 min 57 sec) 
Heartbeat CPU  0 instructions:  151000001 cycles:  123017570 heartbeat IPC: 0.93559 cumulative IPC: 0.69930 (Simulation time: 0 hr 2 min 59 sec) 
Heartbeat CPU  0 instructions:  152000000 cycles:  124088227 heartbeat IPC: 0.93401 cumulative IPC: 0.70270 (Simulation time: 0 hr 3 min 0 sec) 
Heartbeat CPU  0 instructions:  153000001 cycles:  125157341 heartbeat IPC: 0.93535 cumulative IPC: 0.70601 (Simulation time: 0 hr 3 min 1 sec) 
Heartbeat CPU  0 instructions:  154000003 cycles:  126229406 heartbeat IPC: 0.93278 cumulative IPC: 0.70921 (Simulation time: 0 hr 3 min 3 sec) 
Heartbeat CPU  0 instructions:  155000001 cycles:  127299806 heartbeat IPC: 0.93423 cumulative IPC: 0.71233 (Simulation time: 0 hr 3 min 4 sec) 
Heartbeat CPU  0 instructions:  156000000 cycles:  128375815 heartbeat IPC: 0.92936 cumulative IPC: 0.71531 (Simulation time: 0 hr 3 min 6 sec) 
Heartbeat CPU  0 instructions:  157000002 cycles:  129446835 heartbeat IPC: 0.93369 cumulative IPC: 0.71826 (Simulation time: 0 hr 3 min 7 sec) 
Heartbeat CPU  0 instructions:  158000000 cycles:  130517048 heartbeat IPC: 0.93439 cumulative IPC: 0.72113 (Simulation time: 0 hr 3 min 8 sec) 
Heartbeat CPU  0 instructions:  159000002 cycles:  131585585 heartbeat IPC: 0.93586 cumulative IPC: 0.72395 (Simulation time: 0 hr 3 min 10 sec) 
Heartbeat CPU  0 instructions:  160000000 cycles:  132657708 heartbeat IPC: 0.93273 cumulative IPC: 0.72666 (Simulation time: 0 hr 3 min 11 sec) 
Heartbeat CPU  0 instructions:  161000000 cycles:  133727620 heartbeat IPC: 0.93466 cumulative IPC: 0.72932 (Simulation time: 0 hr 3 min 13 sec) 
Heartbeat CPU  0 instructions:  162000002 cycles:  134796824 heartbeat IPC: 0.93528 cumulative IPC: 0.73192 (Simulation time: 0 hr 3 min 14 sec) 
Heartbeat CPU  0 instructions:  163000000 cycles:  135866514 heartbeat IPC: 0.93485 cumulative IPC: 0.73445 (Simulation time: 0 hr 3 min 15 sec) 
Heartbeat CPU  0 instructions:  164000000 cycles:  136933629 heartbeat IPC: 0.93711 cumulative IPC: 0.73694 (Simulation time: 0 hr 3 min 17 sec) 
Heartbeat CPU  0 instructions:  165000001 cycles:  138001876 heartbeat IPC: 0.93611 cumulative IPC: 0.73936 (Simulation time: 0 hr 3 min 18 sec) 
Heartbeat CPU  0 instructions:  166000003 cycles:  139072855 heartbeat IPC: 0.93373 cumulative IPC: 0.74170 (Simulation time: 0 hr 3 min 20 sec) 
Heartbeat CPU  0 instructions:  167000001 cycles:  140143543 heartbeat IPC: 0.93398 cumulative IPC: 0.74398 (Simulation time: 0 hr 3 min 21 sec) 
Heartbeat CPU  0 instructions:  168000000 cycles:  141220222 heartbeat IPC: 0.92878 cumulative IPC: 0.74617 (Simulation time: 0 hr 3 min 22 sec) 
Heartbeat CPU  0 instructions:  169000000 cycles:  142323610 heartbeat IPC: 0.90630 cumulative IPC: 0.74808 (Simulation time: 0 hr 3 min 24 sec) 
Heartbeat CPU  0 instructions:  170000003 cycles:  143473151 heartbeat IPC: 0.86992 cumulative IPC: 0.74958 (Simulation time: 0 hr 3 min 25 sec) 
Heartbeat CPU  0 instructions:  171000001 cycles:  144632598 heartbeat IPC: 0.86248 cumulative IPC: 0.75097 (Simulation time: 0 hr 3 min 27 sec) 
Heartbeat CPU  0 instructions:  172000000 cycles:  145790764 heartbeat IPC: 0.86343 cumulative IPC: 0.75233 (Simulation time: 0 hr 3 min 28 sec) 
Heartbeat CPU  0 instructions:  173000001 cycles:  146954106 heartbeat IPC: 0.85959 cumulative IPC: 0.75362 (Simulation time: 0 hr 3 min 30 sec) 
Heartbeat CPU  0 instructions:  174000000 cycles:  148112962 heartbeat IPC: 0.86292 cumulative IPC: 0.75491 (Simulation time: 0 hr 3 min 31 sec) 
Heartbeat CPU  0 instructions:  175000002 cycles:  149277918 heartbeat IPC: 0.85840 cumulative IPC: 0.75612 (Simulation time: 0 hr 3 min 33 sec) 
Heartbeat CPU  0 instructions:  176000000 cycles:  150438190 heartbeat IPC: 0.86187 cumulative IPC: 0.75735 (Simulation time: 0 hr 3 min 34 sec) 
Heartbeat CPU  0 instructions:  177000002 cycles:  151598482 heartbeat IPC: 0.86185 cumulative IPC: 0.75854 (Simulation time: 0 hr 3 min 36 sec) 
Heartbeat CPU  0 instructions:  178000000 cycles:  152767351 heartbeat IPC: 0.85553 cumulative IPC: 0.75965 (Simulation time: 0 hr 3 min 37 sec) 
Heartbeat CPU  0 instructions:  179000003 cycles:  153938508 heartbeat IPC: 0.85386 cumulative IPC: 0.76071 (Simulation time: 0 hr 3 min 39 sec) 
Heartbeat CPU  0 instructions:  180000000 cycles:  155111378 heartbeat IPC: 0.85261 cumulative IPC: 0.76173 (Simulation time: 0 hr 3 min 40 sec) 
Heartbeat CPU  0 instructions:  181000000 cycles:  156279877 heartbeat IPC: 0.85580 cumulative IPC: 0.76277 (Simulation time: 0 hr 3 min 41 sec) 
Heartbeat CPU  0 instructions:  182000001 cycles:  157439726 heartbeat IPC: 0.86218 cumulative IPC: 0.76384 (Simulation time: 0 hr 3 min 43 sec) 
Heartbeat CPU  0 instructions:  183000000 cycles:  158601835 heartbeat IPC: 0.86050 cumulative IPC: 0.76488 (Simulation time: 0 hr 3 min 44 sec) 
Heartbeat CPU  0 instructions:  184000000 cycles:  159765179 heartbeat IPC: 0.85959 cumulative IPC: 0.76588 (Simulation time: 0 hr 3 min 46 sec) 
Heartbeat CPU  0 instructions:  185000001 cycles:  160930142 heartbeat IPC: 0.85840 cumulative IPC: 0.76686 (Simulation time: 0 hr 3 min 47 sec) 
Heartbeat CPU  0 instructions:  186000002 cycles:  162095063 heartbeat IPC: 0.85843 cumulative IPC: 0.76781 (Simulation time: 0 hr 3 min 49 sec) 
Heartbeat CPU  0 instructions:  187000000 cycles:  163254538 heartbeat IPC: 0.86246 cumulative IPC: 0.76878 (Simulation time: 0 hr 3 min 50 sec) 
Heartbeat CPU  0 instructions:  188000000 cycles:  164410194 heartbeat IPC: 0.86531 cumulative IPC: 0.76975 (Simulation time: 0 hr 3 min 52 sec) 
Heartbeat CPU  0 instructions:  189000001 cycles:  165578104 heartbeat IPC: 0.85623 cumulative IPC: 0.77063 (Simulation time: 0 hr 3 min 53 sec) 
Heartbeat CPU  0 instructions:  190000000 cycles:  166740400 heartbeat IPC: 0.86037 cumulative IPC: 0.77152 (Simulation time: 0 hr 3 min 55 sec) 
Heartbeat CPU  0 instructions:  191000000 cycles:  167918803 heartbeat IPC: 0.84861 cumulative IPC: 0.77229 (Simulation time: 0 hr 3 min 56 sec) 
Heartbeat CPU  0 instructions:  192000000 cycles:  169530639 heartbeat IPC: 0.62041 cumulative IPC: 0.77024 (Simulation time: 0 hr 3 min 58 sec) 
Heartbeat CPU  0 instructions:  193000000 cycles:  171828382 heartbeat IPC: 0.43521 cumulative IPC: 0.76392 (Simulation time: 0 hr 4 min 0 sec) 
Heartbeat CPU  0 instructions:  194000000 cycles:  174124488 heartbeat IPC: 0.43552 cumulative IPC: 0.75784 (Simulation time: 0 hr 4 min 2 sec) 
Heartbeat CPU  0 instructions:  195000000 cycles:  176423418 heartbeat IPC: 0.43498 cumulative IPC: 0.75197 (Simulation time: 0 hr 4 min 4 sec) 
Heartbeat CPU  0 instructions:  196000000 cycles:  178721414 heartbeat IPC: 0.43516 cumulative IPC: 0.74631 (Simulation time: 0 hr 4 min 7 sec) 
Heartbeat CPU  0 instructions:  197000000 cycles:  181019314 heartbeat IPC: 0.43518 cumulative IPC: 0.74085 (Simulation time: 0 hr 4 min 9 sec) 
Heartbeat CPU  0 instructions:  198000000 cycles:  183318801 heartbeat IPC: 0.43488 cumulative IPC: 0.73557 (Simulation time: 0 hr 4 min 11 sec) 
Heartbeat CPU  0 instructions:  199000000 cycles:  185619990 heartbeat IPC: 0.43456 cumulative IPC: 0.73045 (Simulation time: 0 hr 4 min 13 sec) 
Heartbeat CPU  0 instructions:  200000000 cycles:  187917650 heartbeat IPC: 0.43523 cumulative IPC: 0.72553 (Simulation time: 0 hr 4 min 15 sec) 
Finished CPU 0 instructions: 100000000 cycles: 137829762 cumulative IPC: 0.72553 (Simulation time: 0 hr 4 min 15 sec) 

ChampSim completed all CPUs

[ROI Statistics]
Core_0_instructions 100000000
Core_0_cycles 137829762
Core_0_IPC 0.72553

Core_0_branch_prediction_accuracy 99.58952
Core_0_branch_MPKI 0.70683
Core_0_average_ROB_occupancy_at_mispredict 218.78945

Core_0_L1D_total_access 21075747
Core_0_L1D_total_hit 18499510
Core_0_L1D_total_miss 2576237
Core_0_L1D_loads 10154229
Core_0_L1D_load_hit 8155352
Core_0_L1D_load_miss 1998877
Core_0_L1D_RFOs 3492976
Core_0_L1D_RFO_hit 3492956
Core_0_L1D_RFO_miss 20
Core_0_L1D_prefetches 7428542
Core_0_L1D_prefetch_hit 6851202
Core_0_L1D_prefetch_miss 577340
Core_0_L1D_writebacks 0
Core_0_L1D_writeback_hit 0
Core_0_L1D_writeback_miss 0
Core_0_L1D_prefetch_requested 41812582
Core_0_L1D_prefetch_issued 41548780
Core_0_L1D_prefetch_useful 3000105
Core_0_L1D_prefetch_useless 30
Core_0_L1D_prefetch_late 1883012
Core_0_L1D_average_miss_latency 85921969.34981

Core_0_L1I_total_access 32141156
Core_0_L1I_total_hit 32141155
Core_0_L1I_total_miss 1
Core_0_L1I_loads 32141156
Core_0_L1I_load_hit 32141155
Core_0_L1I_load_miss 1
Core_0_L1I_RFOs 0
Core_0_L1I_RFO_hit 0
Core_0_L1I_RFO_miss 0
Core_0_L1I_prefetches 0
Core_0_L1I_prefetch_hit 0
Core_0_L1I_prefetch_miss 0
Core_0_L1I_writebacks 0
Core_0_L1I_writeback_hit 0
Core_0_L1I_writeback_miss 0
Core_0_L1I_prefetch_requested 0
Core_0_L1I_prefetch_issued 0
Core_0_L1I_prefetch_useful 0
Core_0_L1I_prefetch_useless 0
Core_0_L1I_prefetch_late 0
Core_0_L1I_average_miss_latency 261.00000

Core_0_L2C_total_access 3881408
Core_0_L2C_total_hit 1305164
Core_0_L2C_total_miss 2576244
Core_0_L2C_loads 140549
Core_0_L2C_load_hit 1560
Core_0_L2C_load_miss 138989
Core_0_L2C_RFOs 20
Core_0_L2C_RFO_hit 0
Core_0_L2C_RFO_miss 20
Core_0_L2C_prefetches 2790693
Core_0_L2C_prefetch_hit 353458
Core_0_L2C_prefetch_miss 2437235
Core_0_L2C_writebacks 950146
Core_0_L2C_writeback_hit 950146
Core_0_L2C_writeback_miss 0
Core_0_L2C_prefetch_requested 9443646
Core_0_L2C_prefetch_issued 9443646
Core_0_L2C_prefetch_useful 157316
Core_0_L2C_prefetch_useless 4875745
Core_0_L2C_prefetch_late 53323
Core_0_L2C_average_miss_latency 172.12769

Core_0_LLC_total_access 3980110
Core_0_LLC_total_hit 1403856
Core_0_LLC_total_miss 2576254
Core_0_LLC_loads 85666
Core_0_LLC_load_hit 1742
Core_0_LLC_load_miss 83924
Core_0_LLC_RFOs 20
Core_0_LLC_RFO_hit 0
Core_0_LLC_RFO_miss 20
Core_0_LLC_prefetches 2951721
Core_0_LLC_prefetch_hit 459411
Core_0_LLC_prefetch_miss 2492310
Core_0_LLC_writebacks 942703
Core_0_LLC_writeback_hit 942703
Core_0_LLC_writeback_miss 0
Core_0_LLC_prefetch_requested 4859388
Core_0_LLC_prefetch_issued 4779508
Core_0_LLC_prefetch_useful 1747
Core_0_LLC_prefetch_useless 5062100
Core_0_LLC_prefetch_late 8257
Core_0_LLC_average_miss_latency 173.93846

Core_0_major_page_fault 0
Core_0_minor_page_fault 8199

CPU 0 L1D next line prefetcher final stats
CPU 0 L2C PC-based stride prefetcher final stats
LLC Next Line Prefetcher Final Stats: none
Channel_0_RQ_row_buffer_hit 1590280
Channel_0_RQ_row_buffer_miss 985974
Channel_0_WQ_row_buffer_hit 359794
Channel_0_WQ_row_buffer_miss 559052
Channel_0_WQ_full 0
Channel_0_dbus_congested 2505031

avg_congested_cycle 11
