*************************************************
   ChampSim Multicore Out-of-Order Simulator
   Last compiled: Dec 21 2023 19:17:40
*************************************************

trace_0 ./test_trace/462.libquantum-714B.champsimtrace.xz
CPU 0 L1D next line prefetcher
CPU 0 L2C IP-based stride prefetcher
Initialize SHIP state
warmup_instructions 100000000
simulation_instructions 100000000
champsim_seed 222

num_cpus 1
cpu_freq 4000
dram_io_freq 2400
page_size 4096
block_size 64
max_read_per_cycle 8
max_fill_per_cycle 1
dram_channels 1
dram_ranks 1
dram_banks 8
dram_rows 65536
dram_columns 128
dram_row_size 8
dram_size 4096
dram_pages 1048576

fetch_width 6
decode_width 6
exec_width 4
lq_width 2
sq_width 2
retire_width 4
scheduler_size 128
branch_mispredict_penalty 20
rob_size 256
lq_size 72
sq_size 56
num_instr_destinations_sparc 4
num_instr_destinations 2
num_instr_sources 4

itlb_set 16
itlb_way 8
itlb_rq_size 16
itlb_wq_size 16
itlb_pq_size 0
itlb_mshr_size 8
itlb_latency 1

dtlb_set 16
dtlb_way 4
dtlb_rq_size 16
dtlb_wq_size 16
dtlb_pq_size 0
dtlb_mshr_size 8
dtlb_latency 1

stlb_set 128
stlb_way 12
stlb_rq_size 32
stlb_wq_size 32
stlb_pq_size 0
stlb_mshr_size 16
stlb_latency 8

l1i_size 32
l1i_set 64
l1i_way 8
l1i_rq_size 64
l1i_wq_size 64
l1i_pq_size 8
l1i_mshr_size 8
l1i_latency 1

l1d_size 32
l1d_set 64
l1d_way 8
l1d_rq_size 64
l1d_wq_size 64
l1d_pq_size 8
l1d_mshr_size 16
l1d_latency 4

l2c_size 512
l2c_set 1024
l2c_way 8
l2c_rq_size 32
l2c_wq_size 32
l2c_pq_size 16
l2c_mshr_size 32
l2c_latency 10

llc_size 2048
llc_set 2048
llc_way 16
llc_rq_size 32
llc_wq_size 32
llc_pq_size 32
llc_mshr_size 64
llc_latency 20

dram_channel_width 8
dram_wq_size 64
dram_rq_size 64
tRP 15
tRCD 15
tCAS 12.5
dram_dbus_turn_around_time 30
dram_write_high_wm 56
dram_write_low_wm 48
min_dram_writes_per_switch 16
dram_mtps 2400
dram_dbus_return_time 13


Heartbeat CPU  0 instructions:    1000000 cycles:     581510 heartbeat IPC: 1.71966 cumulative IPC: 1.71966 (Simulation time: 0 hr 0 min 0 sec) 
Heartbeat CPU  0 instructions:    2000003 cycles:    1163543 heartbeat IPC: 1.71812 cumulative IPC: 1.71889 (Simulation time: 0 hr 0 min 1 sec) 
Heartbeat CPU  0 instructions:    3000002 cycles:    1745575 heartbeat IPC: 1.71812 cumulative IPC: 1.71863 (Simulation time: 0 hr 0 min 2 sec) 
Heartbeat CPU  0 instructions:    4000000 cycles:    2327604 heartbeat IPC: 1.71812 cumulative IPC: 1.71851 (Simulation time: 0 hr 0 min 3 sec) 
Heartbeat CPU  0 instructions:    5000000 cycles:    2909636 heartbeat IPC: 1.71812 cumulative IPC: 1.71843 (Simulation time: 0 hr 0 min 4 sec) 
Heartbeat CPU  0 instructions:    6000000 cycles:    3491670 heartbeat IPC: 1.71811 cumulative IPC: 1.71838 (Simulation time: 0 hr 0 min 5 sec) 
Heartbeat CPU  0 instructions:    7000000 cycles:    4073701 heartbeat IPC: 1.71812 cumulative IPC: 1.71834 (Simulation time: 0 hr 0 min 6 sec) 
Heartbeat CPU  0 instructions:    8000000 cycles:    4655734 heartbeat IPC: 1.71812 cumulative IPC: 1.71831 (Simulation time: 0 hr 0 min 6 sec) 
Heartbeat CPU  0 instructions:    9000002 cycles:    5192889 heartbeat IPC: 1.86166 cumulative IPC: 1.73314 (Simulation time: 0 hr 0 min 8 sec) 
Heartbeat CPU  0 instructions:   10000002 cycles:    5715751 heartbeat IPC: 1.91255 cumulative IPC: 1.74955 (Simulation time: 0 hr 0 min 9 sec) 
Heartbeat CPU  0 instructions:   11000001 cycles:    6238636 heartbeat IPC: 1.91246 cumulative IPC: 1.76321 (Simulation time: 0 hr 0 min 11 sec) 
Heartbeat CPU  0 instructions:   12000000 cycles:    6761498 heartbeat IPC: 1.91255 cumulative IPC: 1.77475 (Simulation time: 0 hr 0 min 12 sec) 
Heartbeat CPU  0 instructions:   13000001 cycles:    7284407 heartbeat IPC: 1.91238 cumulative IPC: 1.78463 (Simulation time: 0 hr 0 min 13 sec) 
Heartbeat CPU  0 instructions:   14000001 cycles:    7807269 heartbeat IPC: 1.91255 cumulative IPC: 1.79320 (Simulation time: 0 hr 0 min 15 sec) 
Heartbeat CPU  0 instructions:   15000000 cycles:    8330154 heartbeat IPC: 1.91246 cumulative IPC: 1.80069 (Simulation time: 0 hr 0 min 16 sec) 
Heartbeat CPU  0 instructions:   16000000 cycles:    8853016 heartbeat IPC: 1.91255 cumulative IPC: 1.80729 (Simulation time: 0 hr 0 min 18 sec) 
Heartbeat CPU  0 instructions:   17000000 cycles:    9375925 heartbeat IPC: 1.91238 cumulative IPC: 1.81315 (Simulation time: 0 hr 0 min 19 sec) 
Heartbeat CPU  0 instructions:   18000000 cycles:    9898787 heartbeat IPC: 1.91255 cumulative IPC: 1.81840 (Simulation time: 0 hr 0 min 20 sec) 
Heartbeat CPU  0 instructions:   19000003 cycles:   10421672 heartbeat IPC: 1.91247 cumulative IPC: 1.82312 (Simulation time: 0 hr 0 min 22 sec) 
Heartbeat CPU  0 instructions:   20000000 cycles:   10944534 heartbeat IPC: 1.91254 cumulative IPC: 1.82740 (Simulation time: 0 hr 0 min 23 sec) 
Heartbeat CPU  0 instructions:   21000003 cycles:   11467443 heartbeat IPC: 1.91238 cumulative IPC: 1.83127 (Simulation time: 0 hr 0 min 25 sec) 
Heartbeat CPU  0 instructions:   22000003 cycles:   11990305 heartbeat IPC: 1.91255 cumulative IPC: 1.83482 (Simulation time: 0 hr 0 min 26 sec) 
Heartbeat CPU  0 instructions:   23000000 cycles:   12504821 heartbeat IPC: 1.94357 cumulative IPC: 1.83929 (Simulation time: 0 hr 0 min 27 sec) 
Heartbeat CPU  0 instructions:   24000000 cycles:   12925102 heartbeat IPC: 2.37936 cumulative IPC: 1.85685 (Simulation time: 0 hr 0 min 28 sec) 
Heartbeat CPU  0 instructions:   25000000 cycles:   13345378 heartbeat IPC: 2.37939 cumulative IPC: 1.87331 (Simulation time: 0 hr 0 min 29 sec) 
Heartbeat CPU  0 instructions:   26000000 cycles:   13765664 heartbeat IPC: 2.37933 cumulative IPC: 1.88876 (Simulation time: 0 hr 0 min 30 sec) 
Heartbeat CPU  0 instructions:   27000000 cycles:   14185975 heartbeat IPC: 2.37919 cumulative IPC: 1.90329 (Simulation time: 0 hr 0 min 30 sec) 
Heartbeat CPU  0 instructions:   28000000 cycles:   14606283 heartbeat IPC: 2.37921 cumulative IPC: 1.91698 (Simulation time: 0 hr 0 min 31 sec) 
Heartbeat CPU  0 instructions:   29000002 cycles:   15026561 heartbeat IPC: 2.37938 cumulative IPC: 1.92992 (Simulation time: 0 hr 0 min 32 sec) 
Heartbeat CPU  0 instructions:   30000003 cycles:   15446827 heartbeat IPC: 2.37945 cumulative IPC: 1.94215 (Simulation time: 0 hr 0 min 33 sec) 
Heartbeat CPU  0 instructions:   31000001 cycles:   15867121 heartbeat IPC: 2.37928 cumulative IPC: 1.95373 (Simulation time: 0 hr 0 min 34 sec) 
Heartbeat CPU  0 instructions:   32000000 cycles:   16287440 heartbeat IPC: 2.37914 cumulative IPC: 1.96470 (Simulation time: 0 hr 0 min 34 sec) 
Heartbeat CPU  0 instructions:   33000003 cycles:   16707714 heartbeat IPC: 2.37941 cumulative IPC: 1.97514 (Simulation time: 0 hr 0 min 35 sec) 
Heartbeat CPU  0 instructions:   34000000 cycles:   17127976 heartbeat IPC: 2.37946 cumulative IPC: 1.98506 (Simulation time: 0 hr 0 min 36 sec) 
Heartbeat CPU  0 instructions:   35000002 cycles:   17548265 heartbeat IPC: 2.37932 cumulative IPC: 1.99450 (Simulation time: 0 hr 0 min 37 sec) 
Heartbeat CPU  0 instructions:   36000000 cycles:   17968578 heartbeat IPC: 2.37917 cumulative IPC: 2.00350 (Simulation time: 0 hr 0 min 37 sec) 
Heartbeat CPU  0 instructions:   37000000 cycles:   18388894 heartbeat IPC: 2.37916 cumulative IPC: 2.01208 (Simulation time: 0 hr 0 min 38 sec) 
Heartbeat CPU  0 instructions:   38000002 cycles:   18809163 heartbeat IPC: 2.37943 cumulative IPC: 2.02029 (Simulation time: 0 hr 0 min 39 sec) 
Heartbeat CPU  0 instructions:   39000000 cycles:   19229446 heartbeat IPC: 2.37934 cumulative IPC: 2.02814 (Simulation time: 0 hr 0 min 40 sec) 
Heartbeat CPU  0 instructions:   40000000 cycles:   19649740 heartbeat IPC: 2.37929 cumulative IPC: 2.03565 (Simulation time: 0 hr 0 min 40 sec) 
Heartbeat CPU  0 instructions:   41000002 cycles:   20070076 heartbeat IPC: 2.37905 cumulative IPC: 2.04284 (Simulation time: 0 hr 0 min 41 sec) 
Heartbeat CPU  0 instructions:   42000003 cycles:   20490346 heartbeat IPC: 2.37943 cumulative IPC: 2.04975 (Simulation time: 0 hr 0 min 42 sec) 
Heartbeat CPU  0 instructions:   43000001 cycles:   20910616 heartbeat IPC: 2.37942 cumulative IPC: 2.05637 (Simulation time: 0 hr 0 min 43 sec) 
Heartbeat CPU  0 instructions:   44000000 cycles:   21330886 heartbeat IPC: 2.37942 cumulative IPC: 2.06274 (Simulation time: 0 hr 0 min 43 sec) 
Heartbeat CPU  0 instructions:   45000001 cycles:   21751189 heartbeat IPC: 2.37924 cumulative IPC: 2.06885 (Simulation time: 0 hr 0 min 44 sec) 
Heartbeat CPU  0 instructions:   46000001 cycles:   22171496 heartbeat IPC: 2.37921 cumulative IPC: 2.07474 (Simulation time: 0 hr 0 min 45 sec) 
Heartbeat CPU  0 instructions:   47000000 cycles:   22751003 heartbeat IPC: 1.72560 cumulative IPC: 2.06584 (Simulation time: 0 hr 0 min 46 sec) 
Heartbeat CPU  0 instructions:   48000000 cycles:   23333742 heartbeat IPC: 1.71603 cumulative IPC: 2.05711 (Simulation time: 0 hr 0 min 47 sec) 
Heartbeat CPU  0 instructions:   49000000 cycles:   23916486 heartbeat IPC: 1.71602 cumulative IPC: 2.04880 (Simulation time: 0 hr 0 min 48 sec) 
Heartbeat CPU  0 instructions:   50000002 cycles:   24499228 heartbeat IPC: 1.71603 cumulative IPC: 2.04088 (Simulation time: 0 hr 0 min 48 sec) 
Heartbeat CPU  0 instructions:   51000002 cycles:   25081969 heartbeat IPC: 1.71603 cumulative IPC: 2.03333 (Simulation time: 0 hr 0 min 49 sec) 
Heartbeat CPU  0 instructions:   52000000 cycles:   25664708 heartbeat IPC: 1.71603 cumulative IPC: 2.02613 (Simulation time: 0 hr 0 min 50 sec) 
Heartbeat CPU  0 instructions:   53000000 cycles:   26247449 heartbeat IPC: 1.71603 cumulative IPC: 2.01924 (Simulation time: 0 hr 0 min 51 sec) 
Heartbeat CPU  0 instructions:   54000003 cycles:   26830192 heartbeat IPC: 1.71603 cumulative IPC: 2.01266 (Simulation time: 0 hr 0 min 52 sec) 
Heartbeat CPU  0 instructions:   55000002 cycles:   27412934 heartbeat IPC: 1.71602 cumulative IPC: 2.00635 (Simulation time: 0 hr 0 min 53 sec) 
Heartbeat CPU  0 instructions:   56000000 cycles:   27995673 heartbeat IPC: 1.71603 cumulative IPC: 2.00031 (Simulation time: 0 hr 0 min 54 sec) 
Heartbeat CPU  0 instructions:   57000000 cycles:   28578415 heartbeat IPC: 1.71603 cumulative IPC: 1.99451 (Simulation time: 0 hr 0 min 54 sec) 
Heartbeat CPU  0 instructions:   58000000 cycles:   29161159 heartbeat IPC: 1.71602 cumulative IPC: 1.98895 (Simulation time: 0 hr 0 min 55 sec) 
Heartbeat CPU  0 instructions:   59000000 cycles:   29743900 heartbeat IPC: 1.71603 cumulative IPC: 1.98360 (Simulation time: 0 hr 0 min 56 sec) 
Heartbeat CPU  0 instructions:   60000000 cycles:   30326643 heartbeat IPC: 1.71602 cumulative IPC: 1.97846 (Simulation time: 0 hr 0 min 57 sec) 
Heartbeat CPU  0 instructions:   61000002 cycles:   30909383 heartbeat IPC: 1.71603 cumulative IPC: 1.97351 (Simulation time: 0 hr 0 min 58 sec) 
Heartbeat CPU  0 instructions:   62000002 cycles:   31492124 heartbeat IPC: 1.71603 cumulative IPC: 1.96875 (Simulation time: 0 hr 0 min 59 sec) 
Heartbeat CPU  0 instructions:   63000001 cycles:   32074866 heartbeat IPC: 1.71602 cumulative IPC: 1.96415 (Simulation time: 0 hr 1 min 0 sec) 
Heartbeat CPU  0 instructions:   64000000 cycles:   32657605 heartbeat IPC: 1.71603 cumulative IPC: 1.95973 (Simulation time: 0 hr 1 min 0 sec) 
Heartbeat CPU  0 instructions:   65000003 cycles:   33240348 heartbeat IPC: 1.71603 cumulative IPC: 1.95545 (Simulation time: 0 hr 1 min 1 sec) 
Heartbeat CPU  0 instructions:   66000002 cycles:   33823090 heartbeat IPC: 1.71602 cumulative IPC: 1.95133 (Simulation time: 0 hr 1 min 2 sec) 
Heartbeat CPU  0 instructions:   67000001 cycles:   34405829 heartbeat IPC: 1.71603 cumulative IPC: 1.94734 (Simulation time: 0 hr 1 min 3 sec) 
Heartbeat CPU  0 instructions:   68000000 cycles:   34988665 heartbeat IPC: 1.71575 cumulative IPC: 1.94349 (Simulation time: 0 hr 1 min 4 sec) 
Heartbeat CPU  0 instructions:   69000000 cycles:   35571765 heartbeat IPC: 1.71497 cumulative IPC: 1.93974 (Simulation time: 0 hr 1 min 5 sec) 
Heartbeat CPU  0 instructions:   70000000 cycles:   36097918 heartbeat IPC: 1.90059 cumulative IPC: 1.93917 (Simulation time: 0 hr 1 min 6 sec) 
Heartbeat CPU  0 instructions:   71000003 cycles:   36618568 heartbeat IPC: 1.92068 cumulative IPC: 1.93891 (Simulation time: 0 hr 1 min 7 sec) 
Heartbeat CPU  0 instructions:   72000000 cycles:   37139198 heartbeat IPC: 1.92074 cumulative IPC: 1.93865 (Simulation time: 0 hr 1 min 9 sec) 
Heartbeat CPU  0 instructions:   73000002 cycles:   37659875 heartbeat IPC: 1.92058 cumulative IPC: 1.93840 (Simulation time: 0 hr 1 min 10 sec) 
Heartbeat CPU  0 instructions:   74000002 cycles:   38180505 heartbeat IPC: 1.92075 cumulative IPC: 1.93816 (Simulation time: 0 hr 1 min 12 sec) 
Heartbeat CPU  0 instructions:   75000001 cycles:   38701159 heartbeat IPC: 1.92066 cumulative IPC: 1.93793 (Simulation time: 0 hr 1 min 13 sec) 
Heartbeat CPU  0 instructions:   76000000 cycles:   39221789 heartbeat IPC: 1.92075 cumulative IPC: 1.93770 (Simulation time: 0 hr 1 min 14 sec) 
Heartbeat CPU  0 instructions:   77000001 cycles:   39742466 heartbeat IPC: 1.92058 cumulative IPC: 1.93747 (Simulation time: 0 hr 1 min 16 sec) 
Heartbeat CPU  0 instructions:   78000001 cycles:   40263096 heartbeat IPC: 1.92075 cumulative IPC: 1.93726 (Simulation time: 0 hr 1 min 17 sec) 
Heartbeat CPU  0 instructions:   79000000 cycles:   40783750 heartbeat IPC: 1.92066 cumulative IPC: 1.93705 (Simulation time: 0 hr 1 min 19 sec) 
Heartbeat CPU  0 instructions:   80000000 cycles:   41304380 heartbeat IPC: 1.92075 cumulative IPC: 1.93684 (Simulation time: 0 hr 1 min 20 sec) 
Heartbeat CPU  0 instructions:   81000000 cycles:   41825057 heartbeat IPC: 1.92058 cumulative IPC: 1.93664 (Simulation time: 0 hr 1 min 21 sec) 
Heartbeat CPU  0 instructions:   82000000 cycles:   42345687 heartbeat IPC: 1.92075 cumulative IPC: 1.93644 (Simulation time: 0 hr 1 min 23 sec) 
Heartbeat CPU  0 instructions:   83000003 cycles:   42866339 heartbeat IPC: 1.92067 cumulative IPC: 1.93625 (Simulation time: 0 hr 1 min 24 sec) 
Heartbeat CPU  0 instructions:   84000000 cycles:   43363585 heartbeat IPC: 2.01107 cumulative IPC: 1.93711 (Simulation time: 0 hr 1 min 25 sec) 
Heartbeat CPU  0 instructions:   85000000 cycles:   43783868 heartbeat IPC: 2.37935 cumulative IPC: 1.94135 (Simulation time: 0 hr 1 min 26 sec) 
Heartbeat CPU  0 instructions:   86000001 cycles:   44204155 heartbeat IPC: 2.37933 cumulative IPC: 1.94552 (Simulation time: 0 hr 1 min 27 sec) 
Heartbeat CPU  0 instructions:   87000003 cycles:   44624456 heartbeat IPC: 2.37925 cumulative IPC: 1.94960 (Simulation time: 0 hr 1 min 28 sec) 
Heartbeat CPU  0 instructions:   88000000 cycles:   45044816 heartbeat IPC: 2.37891 cumulative IPC: 1.95361 (Simulation time: 0 hr 1 min 29 sec) 
Heartbeat CPU  0 instructions:   89000001 cycles:   45465096 heartbeat IPC: 2.37937 cumulative IPC: 1.95755 (Simulation time: 0 hr 1 min 29 sec) 
Heartbeat CPU  0 instructions:   90000001 cycles:   45885375 heartbeat IPC: 2.37937 cumulative IPC: 1.96141 (Simulation time: 0 hr 1 min 30 sec) 
Heartbeat CPU  0 instructions:   91000000 cycles:   46305655 heartbeat IPC: 2.37936 cumulative IPC: 1.96520 (Simulation time: 0 hr 1 min 31 sec) 
Heartbeat CPU  0 instructions:   92000000 cycles:   46725962 heartbeat IPC: 2.37921 cumulative IPC: 1.96893 (Simulation time: 0 hr 1 min 32 sec) 
Heartbeat CPU  0 instructions:   93000003 cycles:   47146295 heartbeat IPC: 2.37907 cumulative IPC: 1.97258 (Simulation time: 0 hr 1 min 32 sec) 
Heartbeat CPU  0 instructions:   94000000 cycles:   47566577 heartbeat IPC: 2.37935 cumulative IPC: 1.97618 (Simulation time: 0 hr 1 min 33 sec) 
Heartbeat CPU  0 instructions:   95000002 cycles:   47986860 heartbeat IPC: 2.37935 cumulative IPC: 1.97971 (Simulation time: 0 hr 1 min 34 sec) 
Heartbeat CPU  0 instructions:   96000000 cycles:   48407155 heartbeat IPC: 2.37928 cumulative IPC: 1.98318 (Simulation time: 0 hr 1 min 35 sec) 
Heartbeat CPU  0 instructions:   97000000 cycles:   48827511 heartbeat IPC: 2.37894 cumulative IPC: 1.98659 (Simulation time: 0 hr 1 min 35 sec) 
Heartbeat CPU  0 instructions:   98000000 cycles:   49247801 heartbeat IPC: 2.37931 cumulative IPC: 1.98994 (Simulation time: 0 hr 1 min 36 sec) 
Heartbeat CPU  0 instructions:   99000003 cycles:   49668096 heartbeat IPC: 2.37929 cumulative IPC: 1.99323 (Simulation time: 0 hr 1 min 37 sec) 
Heartbeat CPU  0 instructions:  100000000 cycles:   50088381 heartbeat IPC: 2.37933 cumulative IPC: 1.99647 (Simulation time: 0 hr 1 min 38 sec) 

Warmup complete CPU  0 instructions:  100000001 cycles:   50088383 (Simulation time: 0 hr 1 min 38 sec) 

Heartbeat CPU  0 instructions:  101000003 cycles:   51235351 heartbeat IPC: 0.87186 cumulative IPC: 0.87187 (Simulation time: 0 hr 1 min 39 sec) 
Heartbeat CPU  0 instructions:  102000003 cycles:   52386873 heartbeat IPC: 0.86842 cumulative IPC: 0.87014 (Simulation time: 0 hr 1 min 40 sec) 
Heartbeat CPU  0 instructions:  103000001 cycles:   53538336 heartbeat IPC: 0.86846 cumulative IPC: 0.86958 (Simulation time: 0 hr 1 min 42 sec) 
Heartbeat CPU  0 instructions:  104000000 cycles:   54685476 heartbeat IPC: 0.87173 cumulative IPC: 0.87011 (Simulation time: 0 hr 1 min 43 sec) 
Heartbeat CPU  0 instructions:  105000000 cycles:   55829831 heartbeat IPC: 0.87385 cumulative IPC: 0.87086 (Simulation time: 0 hr 1 min 45 sec) 
Heartbeat CPU  0 instructions:  106000002 cycles:   56815937 heartbeat IPC: 1.01409 cumulative IPC: 0.89185 (Simulation time: 0 hr 1 min 46 sec) 
Heartbeat CPU  0 instructions:  107000001 cycles:   57687785 heartbeat IPC: 1.14699 cumulative IPC: 0.92113 (Simulation time: 0 hr 1 min 47 sec) 
Heartbeat CPU  0 instructions:  108000000 cycles:   58900245 heartbeat IPC: 0.82477 cumulative IPC: 0.90787 (Simulation time: 0 hr 1 min 49 sec) 
Heartbeat CPU  0 instructions:  109000000 cycles:   60143097 heartbeat IPC: 0.80460 cumulative IPC: 0.89510 (Simulation time: 0 hr 1 min 50 sec) 
Heartbeat CPU  0 instructions:  110000001 cycles:   61379367 heartbeat IPC: 0.80889 cumulative IPC: 0.88566 (Simulation time: 0 hr 1 min 52 sec) 
Heartbeat CPU  0 instructions:  111000001 cycles:   62610150 heartbeat IPC: 0.81249 cumulative IPC: 0.87847 (Simulation time: 0 hr 1 min 53 sec) 
Heartbeat CPU  0 instructions:  112000000 cycles:   63850175 heartbeat IPC: 0.80643 cumulative IPC: 0.87198 (Simulation time: 0 hr 1 min 55 sec) 
Heartbeat CPU  0 instructions:  113000002 cycles:   65086372 heartbeat IPC: 0.80893 cumulative IPC: 0.86678 (Simulation time: 0 hr 1 min 56 sec) 
Heartbeat CPU  0 instructions:  114000002 cycles:   66320218 heartbeat IPC: 0.81047 cumulative IPC: 0.86250 (Simulation time: 0 hr 1 min 58 sec) 
Heartbeat CPU  0 instructions:  115000003 cycles:   67560041 heartbeat IPC: 0.80657 cumulative IPC: 0.85853 (Simulation time: 0 hr 1 min 59 sec) 
Heartbeat CPU  0 instructions:  116000000 cycles:   68791684 heartbeat IPC: 0.81192 cumulative IPC: 0.85546 (Simulation time: 0 hr 2 min 1 sec) 
Heartbeat CPU  0 instructions:  117000000 cycles:   70038938 heartbeat IPC: 0.80176 cumulative IPC: 0.85211 (Simulation time: 0 hr 2 min 2 sec) 
Heartbeat CPU  0 instructions:  118000000 cycles:   71271171 heartbeat IPC: 0.81153 cumulative IPC: 0.84975 (Simulation time: 0 hr 2 min 4 sec) 
Heartbeat CPU  0 instructions:  119000001 cycles:   72512972 heartbeat IPC: 0.80528 cumulative IPC: 0.84728 (Simulation time: 0 hr 2 min 5 sec) 
Heartbeat CPU  0 instructions:  120000000 cycles:   73740337 heartbeat IPC: 0.81475 cumulative IPC: 0.84560 (Simulation time: 0 hr 2 min 7 sec) 
Heartbeat CPU  0 instructions:  121000000 cycles:   74975303 heartbeat IPC: 0.80974 cumulative IPC: 0.84382 (Simulation time: 0 hr 2 min 8 sec) 
Heartbeat CPU  0 instructions:  122000002 cycles:   76213520 heartbeat IPC: 0.80761 cumulative IPC: 0.84210 (Simulation time: 0 hr 2 min 10 sec) 
Heartbeat CPU  0 instructions:  123000002 cycles:   77442923 heartbeat IPC: 0.81340 cumulative IPC: 0.84081 (Simulation time: 0 hr 2 min 11 sec) 
Heartbeat CPU  0 instructions:  124000000 cycles:   78681942 heartbeat IPC: 0.80709 cumulative IPC: 0.83935 (Simulation time: 0 hr 2 min 13 sec) 
Heartbeat CPU  0 instructions:  125000003 cycles:   79922764 heartbeat IPC: 0.80592 cumulative IPC: 0.83796 (Simulation time: 0 hr 2 min 14 sec) 
Heartbeat CPU  0 instructions:  126000000 cycles:   81160126 heartbeat IPC: 0.80817 cumulative IPC: 0.83677 (Simulation time: 0 hr 2 min 16 sec) 
Heartbeat CPU  0 instructions:  127000000 cycles:   82397735 heartbeat IPC: 0.80801 cumulative IPC: 0.83567 (Simulation time: 0 hr 2 min 17 sec) 
Heartbeat CPU  0 instructions:  128000000 cycles:   83630170 heartbeat IPC: 0.81140 cumulative IPC: 0.83478 (Simulation time: 0 hr 2 min 19 sec) 
Heartbeat CPU  0 instructions:  129000001 cycles:   84756646 heartbeat IPC: 0.88773 cumulative IPC: 0.83650 (Simulation time: 0 hr 2 min 20 sec) 
Heartbeat CPU  0 instructions:  130000001 cycles:   85667710 heartbeat IPC: 1.09762 cumulative IPC: 0.84319 (Simulation time: 0 hr 2 min 21 sec) 
Heartbeat CPU  0 instructions:  131000000 cycles:   87844543 heartbeat IPC: 0.45938 cumulative IPC: 0.82106 (Simulation time: 0 hr 2 min 23 sec) 
Heartbeat CPU  0 instructions:  132000000 cycles:   90282172 heartbeat IPC: 0.41023 cumulative IPC: 0.79614 (Simulation time: 0 hr 2 min 26 sec) 
Heartbeat CPU  0 instructions:  133000000 cycles:   92693722 heartbeat IPC: 0.41467 cumulative IPC: 0.77455 (Simulation time: 0 hr 2 min 28 sec) 
Heartbeat CPU  0 instructions:  134000000 cycles:   95117311 heartbeat IPC: 0.41261 cumulative IPC: 0.75507 (Simulation time: 0 hr 2 min 30 sec) 
Heartbeat CPU  0 instructions:  135000000 cycles:   97540497 heartbeat IPC: 0.41268 cumulative IPC: 0.73759 (Simulation time: 0 hr 2 min 32 sec) 
Heartbeat CPU  0 instructions:  136000000 cycles:   99958203 heartbeat IPC: 0.41362 cumulative IPC: 0.72188 (Simulation time: 0 hr 2 min 34 sec) 
Heartbeat CPU  0 instructions:  137000000 cycles:  102376297 heartbeat IPC: 0.41355 cumulative IPC: 0.70762 (Simulation time: 0 hr 2 min 36 sec) 
Heartbeat CPU  0 instructions:  138000000 cycles:  104794670 heartbeat IPC: 0.41350 cumulative IPC: 0.69462 (Simulation time: 0 hr 2 min 39 sec) 
Heartbeat CPU  0 instructions:  139000000 cycles:  107224963 heartbeat IPC: 0.41147 cumulative IPC: 0.68257 (Simulation time: 0 hr 2 min 41 sec) 
Heartbeat CPU  0 instructions:  140000000 cycles:  109644669 heartbeat IPC: 0.41327 cumulative IPC: 0.67163 (Simulation time: 0 hr 2 min 43 sec) 
Heartbeat CPU  0 instructions:  141000000 cycles:  112048253 heartbeat IPC: 0.41605 cumulative IPC: 0.66172 (Simulation time: 0 hr 2 min 45 sec) 
Heartbeat CPU  0 instructions:  142000000 cycles:  114475897 heartbeat IPC: 0.41192 cumulative IPC: 0.65230 (Simulation time: 0 hr 2 min 47 sec) 
Heartbeat CPU  0 instructions:  143000000 cycles:  116888202 heartbeat IPC: 0.41454 cumulative IPC: 0.64371 (Simulation time: 0 hr 2 min 50 sec) 
Heartbeat CPU  0 instructions:  144000000 cycles:  119301794 heartbeat IPC: 0.41432 cumulative IPC: 0.63571 (Simulation time: 0 hr 2 min 52 sec) 
Heartbeat CPU  0 instructions:  145000002 cycles:  121532151 heartbeat IPC: 0.44836 cumulative IPC: 0.62987 (Simulation time: 0 hr 2 min 54 sec) 
Heartbeat CPU  0 instructions:  146000000 cycles:  122769120 heartbeat IPC: 0.80843 cumulative IPC: 0.63290 (Simulation time: 0 hr 2 min 55 sec) 
Heartbeat CPU  0 instructions:  147000000 cycles:  123918962 heartbeat IPC: 0.86968 cumulative IPC: 0.63659 (Simulation time: 0 hr 2 min 57 sec) 
Heartbeat CPU  0 instructions:  148000000 cycles:  125069465 heartbeat IPC: 0.86919 cumulative IPC: 0.64016 (Simulation time: 0 hr 2 min 58 sec) 
Heartbeat CPU  0 instructions:  149000000 cycles:  126224434 heartbeat IPC: 0.86582 cumulative IPC: 0.64358 (Simulation time: 0 hr 3 min 0 sec) 
Heartbeat CPU  0 instructions:  150000000 cycles:  127372277 heartbeat IPC: 0.87120 cumulative IPC: 0.64697 (Simulation time: 0 hr 3 min 1 sec) 
Heartbeat CPU  0 instructions:  151000001 cycles:  128526490 heartbeat IPC: 0.86639 cumulative IPC: 0.65019 (Simulation time: 0 hr 3 min 2 sec) 
Heartbeat CPU  0 instructions:  152000000 cycles:  129674042 heartbeat IPC: 0.87142 cumulative IPC: 0.65338 (Simulation time: 0 hr 3 min 4 sec) 
Heartbeat CPU  0 instructions:  153000001 cycles:  130826032 heartbeat IPC: 0.86806 cumulative IPC: 0.65645 (Simulation time: 0 hr 3 min 5 sec) 
Heartbeat CPU  0 instructions:  154000003 cycles:  131978851 heartbeat IPC: 0.86744 cumulative IPC: 0.65942 (Simulation time: 0 hr 3 min 7 sec) 
Heartbeat CPU  0 instructions:  155000001 cycles:  133127124 heartbeat IPC: 0.87087 cumulative IPC: 0.66234 (Simulation time: 0 hr 3 min 8 sec) 
Heartbeat CPU  0 instructions:  156000000 cycles:  134277821 heartbeat IPC: 0.86904 cumulative IPC: 0.66517 (Simulation time: 0 hr 3 min 9 sec) 
Heartbeat CPU  0 instructions:  157000002 cycles:  135431885 heartbeat IPC: 0.86650 cumulative IPC: 0.66789 (Simulation time: 0 hr 3 min 11 sec) 
Heartbeat CPU  0 instructions:  158000000 cycles:  136577959 heartbeat IPC: 0.87254 cumulative IPC: 0.67060 (Simulation time: 0 hr 3 min 12 sec) 
Heartbeat CPU  0 instructions:  159000002 cycles:  137731726 heartbeat IPC: 0.86673 cumulative IPC: 0.67318 (Simulation time: 0 hr 3 min 14 sec) 
Heartbeat CPU  0 instructions:  160000000 cycles:  138881990 heartbeat IPC: 0.86936 cumulative IPC: 0.67572 (Simulation time: 0 hr 3 min 15 sec) 
Heartbeat CPU  0 instructions:  161000000 cycles:  140024901 heartbeat IPC: 0.87496 cumulative IPC: 0.67826 (Simulation time: 0 hr 3 min 17 sec) 
Heartbeat CPU  0 instructions:  162000002 cycles:  141175718 heartbeat IPC: 0.86895 cumulative IPC: 0.68067 (Simulation time: 0 hr 3 min 18 sec) 
Heartbeat CPU  0 instructions:  163000000 cycles:  142332923 heartbeat IPC: 0.86415 cumulative IPC: 0.68297 (Simulation time: 0 hr 3 min 19 sec) 
Heartbeat CPU  0 instructions:  164000000 cycles:  143484898 heartbeat IPC: 0.86807 cumulative IPC: 0.68525 (Simulation time: 0 hr 3 min 21 sec) 
Heartbeat CPU  0 instructions:  165000001 cycles:  144626507 heartbeat IPC: 0.87596 cumulative IPC: 0.68755 (Simulation time: 0 hr 3 min 22 sec) 
Heartbeat CPU  0 instructions:  166000003 cycles:  145773558 heartbeat IPC: 0.87180 cumulative IPC: 0.68976 (Simulation time: 0 hr 3 min 24 sec) 
Heartbeat CPU  0 instructions:  167000001 cycles:  146732332 heartbeat IPC: 1.04300 cumulative IPC: 0.69327 (Simulation time: 0 hr 3 min 25 sec) 
Heartbeat CPU  0 instructions:  168000000 cycles:  147632749 heartbeat IPC: 1.11060 cumulative IPC: 0.69712 (Simulation time: 0 hr 3 min 26 sec) 
Heartbeat CPU  0 instructions:  169000000 cycles:  148877450 heartbeat IPC: 0.80341 cumulative IPC: 0.69846 (Simulation time: 0 hr 3 min 28 sec) 
Heartbeat CPU  0 instructions:  170000003 cycles:  150159402 heartbeat IPC: 0.78006 cumulative IPC: 0.69950 (Simulation time: 0 hr 3 min 29 sec) 
Heartbeat CPU  0 instructions:  171000001 cycles:  151427302 heartbeat IPC: 0.78870 cumulative IPC: 0.70062 (Simulation time: 0 hr 3 min 31 sec) 
Heartbeat CPU  0 instructions:  172000000 cycles:  152699804 heartbeat IPC: 0.78585 cumulative IPC: 0.70168 (Simulation time: 0 hr 3 min 32 sec) 
Heartbeat CPU  0 instructions:  173000001 cycles:  153971227 heartbeat IPC: 0.78652 cumulative IPC: 0.70271 (Simulation time: 0 hr 3 min 34 sec) 
Heartbeat CPU  0 instructions:  174000000 cycles:  155242097 heartbeat IPC: 0.78686 cumulative IPC: 0.70373 (Simulation time: 0 hr 3 min 35 sec) 
Heartbeat CPU  0 instructions:  175000002 cycles:  156496831 heartbeat IPC: 0.79698 cumulative IPC: 0.70483 (Simulation time: 0 hr 3 min 37 sec) 
Heartbeat CPU  0 instructions:  176000000 cycles:  157767250 heartbeat IPC: 0.78714 cumulative IPC: 0.70580 (Simulation time: 0 hr 3 min 38 sec) 
Heartbeat CPU  0 instructions:  177000002 cycles:  159028466 heartbeat IPC: 0.79289 cumulative IPC: 0.70681 (Simulation time: 0 hr 3 min 40 sec) 
Heartbeat CPU  0 instructions:  178000000 cycles:  160297855 heartbeat IPC: 0.78778 cumulative IPC: 0.70774 (Simulation time: 0 hr 3 min 41 sec) 
Heartbeat CPU  0 instructions:  179000003 cycles:  161575871 heartbeat IPC: 0.78247 cumulative IPC: 0.70860 (Simulation time: 0 hr 3 min 43 sec) 
Heartbeat CPU  0 instructions:  180000000 cycles:  162855297 heartbeat IPC: 0.78160 cumulative IPC: 0.70943 (Simulation time: 0 hr 3 min 44 sec) 
Heartbeat CPU  0 instructions:  181000000 cycles:  164113143 heartbeat IPC: 0.79501 cumulative IPC: 0.71037 (Simulation time: 0 hr 3 min 46 sec) 
Heartbeat CPU  0 instructions:  182000001 cycles:  165381461 heartbeat IPC: 0.78845 cumulative IPC: 0.71123 (Simulation time: 0 hr 3 min 47 sec) 
Heartbeat CPU  0 instructions:  183000000 cycles:  166641185 heartbeat IPC: 0.79382 cumulative IPC: 0.71212 (Simulation time: 0 hr 3 min 48 sec) 
Heartbeat CPU  0 instructions:  184000000 cycles:  167905503 heartbeat IPC: 0.79094 cumulative IPC: 0.71297 (Simulation time: 0 hr 3 min 50 sec) 
Heartbeat CPU  0 instructions:  185000001 cycles:  169178398 heartbeat IPC: 0.78561 cumulative IPC: 0.71375 (Simulation time: 0 hr 3 min 51 sec) 
Heartbeat CPU  0 instructions:  186000002 cycles:  170440452 heartbeat IPC: 0.79236 cumulative IPC: 0.71457 (Simulation time: 0 hr 3 min 53 sec) 
Heartbeat CPU  0 instructions:  187000000 cycles:  171716501 heartbeat IPC: 0.78367 cumulative IPC: 0.71530 (Simulation time: 0 hr 3 min 54 sec) 
Heartbeat CPU  0 instructions:  188000000 cycles:  172981839 heartbeat IPC: 0.79030 cumulative IPC: 0.71607 (Simulation time: 0 hr 3 min 56 sec) 
Heartbeat CPU  0 instructions:  189000001 cycles:  174254701 heartbeat IPC: 0.78563 cumulative IPC: 0.71678 (Simulation time: 0 hr 3 min 57 sec) 
Heartbeat CPU  0 instructions:  190000000 cycles:  175355796 heartbeat IPC: 0.90819 cumulative IPC: 0.71846 (Simulation time: 0 hr 3 min 59 sec) 
Heartbeat CPU  0 instructions:  191000000 cycles:  176265694 heartbeat IPC: 1.09902 cumulative IPC: 0.72121 (Simulation time: 0 hr 4 min 0 sec) 
Heartbeat CPU  0 instructions:  192000000 cycles:  178575787 heartbeat IPC: 0.43288 cumulative IPC: 0.71602 (Simulation time: 0 hr 4 min 2 sec) 
Heartbeat CPU  0 instructions:  193000000 cycles:  181099493 heartbeat IPC: 0.39624 cumulative IPC: 0.70986 (Simulation time: 0 hr 4 min 4 sec) 
Heartbeat CPU  0 instructions:  194000000 cycles:  183571001 heartbeat IPC: 0.40461 cumulative IPC: 0.70421 (Simulation time: 0 hr 4 min 7 sec) 
Heartbeat CPU  0 instructions:  195000002 cycles:  186073915 heartbeat IPC: 0.39954 cumulative IPC: 0.69860 (Simulation time: 0 hr 4 min 9 sec) 
Heartbeat CPU  0 instructions:  196000000 cycles:  188584665 heartbeat IPC: 0.39829 cumulative IPC: 0.69316 (Simulation time: 0 hr 4 min 11 sec) 
Heartbeat CPU  0 instructions:  197000000 cycles:  191064466 heartbeat IPC: 0.40326 cumulative IPC: 0.68806 (Simulation time: 0 hr 4 min 13 sec) 
Heartbeat CPU  0 instructions:  198000000 cycles:  193562729 heartbeat IPC: 0.40028 cumulative IPC: 0.68305 (Simulation time: 0 hr 4 min 15 sec) 
Heartbeat CPU  0 instructions:  199000000 cycles:  196060886 heartbeat IPC: 0.40030 cumulative IPC: 0.67821 (Simulation time: 0 hr 4 min 17 sec) 
Heartbeat CPU  0 instructions:  200000000 cycles:  198561882 heartbeat IPC: 0.39984 cumulative IPC: 0.67352 (Simulation time: 0 hr 4 min 20 sec) 
Finished CPU 0 instructions: 100000000 cycles: 148473512 cumulative IPC: 0.67352 (Simulation time: 0 hr 4 min 20 sec) 

ChampSim completed all CPUs

[ROI Statistics]
Core_0_instructions 100000000
Core_0_cycles 148473512
Core_0_IPC 0.67352

Core_0_branch_prediction_accuracy 99.58952
Core_0_branch_MPKI 0.70683
Core_0_average_ROB_occupancy_at_mispredict 218.78825

Core_0_L1D_total_access 21681736
Core_0_L1D_total_hit 19105498
Core_0_L1D_total_miss 2576238
Core_0_L1D_loads 10616426
Core_0_L1D_load_hit 8776025
Core_0_L1D_load_miss 1840401
Core_0_L1D_RFOs 3492980
Core_0_L1D_RFO_hit 3492960
Core_0_L1D_RFO_miss 20
Core_0_L1D_prefetches 7572330
Core_0_L1D_prefetch_hit 6836513
Core_0_L1D_prefetch_miss 735817
Core_0_L1D_writebacks 0
Core_0_L1D_writeback_hit 0
Core_0_L1D_writeback_miss 0
Core_0_L1D_prefetch_requested 41710338
Core_0_L1D_prefetch_issued 41448655
Core_0_L1D_prefetch_useful 3158589
Core_0_L1D_prefetch_useless 30
Core_0_L1D_prefetch_late 1699412
Core_0_L1D_average_miss_latency 80724982.18009

Core_0_L1I_total_access 31919015
Core_0_L1I_total_hit 31919014
Core_0_L1I_total_miss 1
Core_0_L1I_loads 31919015
Core_0_L1I_load_hit 31919014
Core_0_L1I_load_miss 1
Core_0_L1I_RFOs 0
Core_0_L1I_RFO_hit 0
Core_0_L1I_RFO_miss 0
Core_0_L1I_prefetches 0
Core_0_L1I_prefetch_hit 0
Core_0_L1I_prefetch_miss 0
Core_0_L1I_writebacks 0
Core_0_L1I_writeback_hit 0
Core_0_L1I_writeback_miss 0
Core_0_L1I_prefetch_requested 0
Core_0_L1I_prefetch_issued 0
Core_0_L1I_prefetch_useful 0
Core_0_L1I_prefetch_useless 0
Core_0_L1I_prefetch_late 0
Core_0_L1I_average_miss_latency 230.00000

Core_0_L2C_total_access 4134064
Core_0_L2C_total_hit 1557816
Core_0_L2C_total_miss 2576248
Core_0_L2C_loads 165665
Core_0_L2C_load_hit 13826
Core_0_L2C_load_miss 151839
Core_0_L2C_RFOs 20
Core_0_L2C_RFO_hit 0
Core_0_L2C_RFO_miss 20
Core_0_L2C_prefetches 3018233
Core_0_L2C_prefetch_hit 593844
Core_0_L2C_prefetch_miss 2424389
Core_0_L2C_writebacks 950146
Core_0_L2C_writeback_hit 950146
Core_0_L2C_writeback_miss 0
Core_0_L2C_prefetch_requested 9823285
Core_0_L2C_prefetch_issued 9823285
Core_0_L2C_prefetch_useful 169574
Core_0_L2C_prefetch_useless 4850887
Core_0_L2C_prefetch_late 74594
Core_0_L2C_average_miss_latency 181.29082

Core_0_LLC_total_access 3518952
Core_0_LLC_total_hit 116190
Core_0_LLC_total_miss 3402762
Core_0_LLC_loads 77245
Core_0_LLC_load_hit 2700
Core_0_LLC_load_miss 74545
Core_0_LLC_RFOs 20
Core_0_LLC_RFO_hit 16
Core_0_LLC_RFO_miss 4
Core_0_LLC_prefetches 2498984
Core_0_LLC_prefetch_hit 113444
Core_0_LLC_prefetch_miss 2385540
Core_0_LLC_writebacks 942703
Core_0_LLC_writeback_hit 30
Core_0_LLC_writeback_miss 942673
Core_0_LLC_prefetch_requested 0
Core_0_LLC_prefetch_issued 0
Core_0_LLC_prefetch_useful 0
Core_0_LLC_prefetch_useless 4928471
Core_0_LLC_prefetch_late 0
Core_0_LLC_average_miss_latency 114.64596

Core_0_major_page_fault 0
Core_0_minor_page_fault 8199

CPU 0 L1D next line prefetcher final stats
CPU 0 L2C PC-based stride prefetcher final stats
Channel_0_RQ_row_buffer_hit 1473397
Channel_0_RQ_row_buffer_miss 986693
Channel_0_WQ_row_buffer_hit 474967
Channel_0_WQ_row_buffer_miss 466513
Channel_0_WQ_full 0
Channel_0_dbus_congested 2295955

avg_congested_cycle 10
